                                   MODFLOW 6
                U.S. GEOLOGICAL SURVEY MODULAR HYDROLOGIC MODEL
                            VERSION 6.2.2 07/30/2021

   MODFLOW 6 compiled Jul 31 2021 14:59:11 with IFORT compiler (ver. 20.21.2)

This software has been approved for release by the U.S. Geological 
Survey (USGS). Although the software has been subjected to rigorous 
review, the USGS reserves the right to update the software as needed 
pursuant to further analysis and review. No warranty, expressed or 
implied, is made by the USGS or the U.S. Government as to the 
functionality of the software and related material nor shall the 
fact of release constitute any such warranty. Furthermore, the 
software is released on condition that neither the USGS nor the U.S. 
Government shall be held liable for any damages resulting from its 
authorized or unauthorized use. Also refer to the USGS Water 
Resources Software User Rights Notice for complete use, copyright, 
and distribution information.


System command used to initiate simulation:
python  c:\GitHub\CWatM\run_cwatm.py settings_CWatM-Bhima-30sec-contemporary.ini -l

MODFLOW was compiled using uniform precision.

Real Variables
  KIND: 8
  TINY (smallest non-zero value):    2.225074-308
  HUGE (largest value):    1.797693+308
  PRECISION: 15
  BIT SIZE: 64

Integer Variables
  KIND: 4
  HUGE (largest value): 2147483647
  BIT SIZE: 32

Long Integer Variables
  KIND: 8
  HUGE (largest value): 9223372036854775807
  BIT SIZE: 64

Logical Variables
  KIND: 4
  BIT SIZE: 32
 

 OPENED mfsim.nam
 FILE TYPE:NAM   UNIT 1002   STATUS:OLD                 
 FORMAT:FORMATTED              ACCESS:SEQUENTIAL          
 ACTION:READ                

 # File generated by Flopy version 3.3.5 on 06/19/2023 at 17:35:19.

 READING SIMULATION OPTIONS
    ALL SIMULATION MEMORY INFORMATION WILL BE WRITTEN.
 END OF SIMULATION OPTIONS

 READING SIMULATION TIMING

 OPENED TRANSIENT.tdis
 FILE TYPE:TDIS   UNIT 1003   STATUS:OLD                 
 FORMAT:FORMATTED              ACCESS:SEQUENTIAL          
 ACTION:READ                


 TDIS -- TEMPORAL DISCRETIZATION PACKAGE,
 VERSION 1 : 11/13/2014 - INPUT READ FROM UNIT 1003
 # File generated by Flopy version 3.3.5 on 06/19/2023 at 17:35:19.
 PROCESSING TDIS OPTIONS
 END OF TDIS OPTIONS
    SIMULATION TIME UNIT IS UNDEFINED
 PROCESSING TDIS DIMENSIONS
 1097 STRESS PERIOD(S) IN SIMULATION
 END OF TDIS DIMENSIONS
 PROCESSING TDIS PERIODDATA


 STRESS PERIOD     LENGTH       TIME STEPS     MULTIPLIER FOR DELT
 ----------------------------------------------------------------------------
        1         1.000000          1                    1.000
        2         1.000000          1                    1.000
        3         1.000000          1                    1.000
        4         1.000000          1                    1.000
        5         1.000000          1                    1.000
        6         1.000000          1                    1.000
        7         1.000000          1                    1.000
        8         1.000000          1                    1.000
        9         1.000000          1                    1.000
       10         1.000000          1                    1.000
       11         1.000000          1                    1.000
       12         1.000000          1                    1.000
       13         1.000000          1                    1.000
       14         1.000000          1                    1.000
       15         1.000000          1                    1.000
       16         1.000000          1                    1.000
       17         1.000000          1                    1.000
       18         1.000000          1                    1.000
       19         1.000000          1                    1.000
       20         1.000000          1                    1.000
       21         1.000000          1                    1.000
       22         1.000000          1                    1.000
       23         1.000000          1                    1.000
       24         1.000000          1                    1.000
       25         1.000000          1                    1.000
       26         1.000000          1                    1.000
       27         1.000000          1                    1.000
       28         1.000000          1                    1.000
       29         1.000000          1                    1.000
       30         1.000000          1                    1.000
       31         1.000000          1                    1.000
       32         1.000000          1                    1.000
       33         1.000000          1                    1.000
       34         1.000000          1                    1.000
       35         1.000000          1                    1.000
       36         1.000000          1                    1.000
       37         1.000000          1                    1.000
       38         1.000000          1                    1.000
       39         1.000000          1                    1.000
       40         1.000000          1                    1.000
       41         1.000000          1                    1.000
       42         1.000000          1                    1.000
       43         1.000000          1                    1.000
       44         1.000000          1                    1.000
       45         1.000000          1                    1.000
       46         1.000000          1                    1.000
       47         1.000000          1                    1.000
       48         1.000000          1                    1.000
       49         1.000000          1                    1.000
       50         1.000000          1                    1.000
       51         1.000000          1                    1.000
       52         1.000000          1                    1.000
       53         1.000000          1                    1.000
       54         1.000000          1                    1.000
       55         1.000000          1                    1.000
       56         1.000000          1                    1.000
       57         1.000000          1                    1.000
       58         1.000000          1                    1.000
       59         1.000000          1                    1.000
       60         1.000000          1                    1.000
       61         1.000000          1                    1.000
       62         1.000000          1                    1.000
       63         1.000000          1                    1.000
       64         1.000000          1                    1.000
       65         1.000000          1                    1.000
       66         1.000000          1                    1.000
       67         1.000000          1                    1.000
       68         1.000000          1                    1.000
       69         1.000000          1                    1.000
       70         1.000000          1                    1.000
       71         1.000000          1                    1.000
       72         1.000000          1                    1.000
       73         1.000000          1                    1.000
       74         1.000000          1                    1.000
       75         1.000000          1                    1.000
       76         1.000000          1                    1.000
       77         1.000000          1                    1.000
       78         1.000000          1                    1.000
       79         1.000000          1                    1.000
       80         1.000000          1                    1.000
       81         1.000000          1                    1.000
       82         1.000000          1                    1.000
       83         1.000000          1                    1.000
       84         1.000000          1                    1.000
       85         1.000000          1                    1.000
       86         1.000000          1                    1.000
       87         1.000000          1                    1.000
       88         1.000000          1                    1.000
       89         1.000000          1                    1.000
       90         1.000000          1                    1.000
       91         1.000000          1                    1.000
       92         1.000000          1                    1.000
       93         1.000000          1                    1.000
       94         1.000000          1                    1.000
       95         1.000000          1                    1.000
       96         1.000000          1                    1.000
       97         1.000000          1                    1.000
       98         1.000000          1                    1.000
       99         1.000000          1                    1.000
      100         1.000000          1                    1.000
      101         1.000000          1                    1.000
      102         1.000000          1                    1.000
      103         1.000000          1                    1.000
      104         1.000000          1                    1.000
      105         1.000000          1                    1.000
      106         1.000000          1                    1.000
      107         1.000000          1                    1.000
      108         1.000000          1                    1.000
      109         1.000000          1                    1.000
      110         1.000000          1                    1.000
      111         1.000000          1                    1.000
      112         1.000000          1                    1.000
      113         1.000000          1                    1.000
      114         1.000000          1                    1.000
      115         1.000000          1                    1.000
      116         1.000000          1                    1.000
      117         1.000000          1                    1.000
      118         1.000000          1                    1.000
      119         1.000000          1                    1.000
      120         1.000000          1                    1.000
      121         1.000000          1                    1.000
      122         1.000000          1                    1.000
      123         1.000000          1                    1.000
      124         1.000000          1                    1.000
      125         1.000000          1                    1.000
      126         1.000000          1                    1.000
      127         1.000000          1                    1.000
      128         1.000000          1                    1.000
      129         1.000000          1                    1.000
      130         1.000000          1                    1.000
      131         1.000000          1                    1.000
      132         1.000000          1                    1.000
      133         1.000000          1                    1.000
      134         1.000000          1                    1.000
      135         1.000000          1                    1.000
      136         1.000000          1                    1.000
      137         1.000000          1                    1.000
      138         1.000000          1                    1.000
      139         1.000000          1                    1.000
      140         1.000000          1                    1.000
      141         1.000000          1                    1.000
      142         1.000000          1                    1.000
      143         1.000000          1                    1.000
      144         1.000000          1                    1.000
      145         1.000000          1                    1.000
      146         1.000000          1                    1.000
      147         1.000000          1                    1.000
      148         1.000000          1                    1.000
      149         1.000000          1                    1.000
      150         1.000000          1                    1.000
      151         1.000000          1                    1.000
      152         1.000000          1                    1.000
      153         1.000000          1                    1.000
      154         1.000000          1                    1.000
      155         1.000000          1                    1.000
      156         1.000000          1                    1.000
      157         1.000000          1                    1.000
      158         1.000000          1                    1.000
      159         1.000000          1                    1.000
      160         1.000000          1                    1.000
      161         1.000000          1                    1.000
      162         1.000000          1                    1.000
      163         1.000000          1                    1.000
      164         1.000000          1                    1.000
      165         1.000000          1                    1.000
      166         1.000000          1                    1.000
      167         1.000000          1                    1.000
      168         1.000000          1                    1.000
      169         1.000000          1                    1.000
      170         1.000000          1                    1.000
      171         1.000000          1                    1.000
      172         1.000000          1                    1.000
      173         1.000000          1                    1.000
      174         1.000000          1                    1.000
      175         1.000000          1                    1.000
      176         1.000000          1                    1.000
      177         1.000000          1                    1.000
      178         1.000000          1                    1.000
      179         1.000000          1                    1.000
      180         1.000000          1                    1.000
      181         1.000000          1                    1.000
      182         1.000000          1                    1.000
      183         1.000000          1                    1.000
      184         1.000000          1                    1.000
      185         1.000000          1                    1.000
      186         1.000000          1                    1.000
      187         1.000000          1                    1.000
      188         1.000000          1                    1.000
      189         1.000000          1                    1.000
      190         1.000000          1                    1.000
      191         1.000000          1                    1.000
      192         1.000000          1                    1.000
      193         1.000000          1                    1.000
      194         1.000000          1                    1.000
      195         1.000000          1                    1.000
      196         1.000000          1                    1.000
      197         1.000000          1                    1.000
      198         1.000000          1                    1.000
      199         1.000000          1                    1.000
      200         1.000000          1                    1.000
      201         1.000000          1                    1.000
      202         1.000000          1                    1.000
      203         1.000000          1                    1.000
      204         1.000000          1                    1.000
      205         1.000000          1                    1.000
      206         1.000000          1                    1.000
      207         1.000000          1                    1.000
      208         1.000000          1                    1.000
      209         1.000000          1                    1.000
      210         1.000000          1                    1.000
      211         1.000000          1                    1.000
      212         1.000000          1                    1.000
      213         1.000000          1                    1.000
      214         1.000000          1                    1.000
      215         1.000000          1                    1.000
      216         1.000000          1                    1.000
      217         1.000000          1                    1.000
      218         1.000000          1                    1.000
      219         1.000000          1                    1.000
      220         1.000000          1                    1.000
      221         1.000000          1                    1.000
      222         1.000000          1                    1.000
      223         1.000000          1                    1.000
      224         1.000000          1                    1.000
      225         1.000000          1                    1.000
      226         1.000000          1                    1.000
      227         1.000000          1                    1.000
      228         1.000000          1                    1.000
      229         1.000000          1                    1.000
      230         1.000000          1                    1.000
      231         1.000000          1                    1.000
      232         1.000000          1                    1.000
      233         1.000000          1                    1.000
      234         1.000000          1                    1.000
      235         1.000000          1                    1.000
      236         1.000000          1                    1.000
      237         1.000000          1                    1.000
      238         1.000000          1                    1.000
      239         1.000000          1                    1.000
      240         1.000000          1                    1.000
      241         1.000000          1                    1.000
      242         1.000000          1                    1.000
      243         1.000000          1                    1.000
      244         1.000000          1                    1.000
      245         1.000000          1                    1.000
      246         1.000000          1                    1.000
      247         1.000000          1                    1.000
      248         1.000000          1                    1.000
      249         1.000000          1                    1.000
      250         1.000000          1                    1.000
      251         1.000000          1                    1.000
      252         1.000000          1                    1.000
      253         1.000000          1                    1.000
      254         1.000000          1                    1.000
      255         1.000000          1                    1.000
      256         1.000000          1                    1.000
      257         1.000000          1                    1.000
      258         1.000000          1                    1.000
      259         1.000000          1                    1.000
      260         1.000000          1                    1.000
      261         1.000000          1                    1.000
      262         1.000000          1                    1.000
      263         1.000000          1                    1.000
      264         1.000000          1                    1.000
      265         1.000000          1                    1.000
      266         1.000000          1                    1.000
      267         1.000000          1                    1.000
      268         1.000000          1                    1.000
      269         1.000000          1                    1.000
      270         1.000000          1                    1.000
      271         1.000000          1                    1.000
      272         1.000000          1                    1.000
      273         1.000000          1                    1.000
      274         1.000000          1                    1.000
      275         1.000000          1                    1.000
      276         1.000000          1                    1.000
      277         1.000000          1                    1.000
      278         1.000000          1                    1.000
      279         1.000000          1                    1.000
      280         1.000000          1                    1.000
      281         1.000000          1                    1.000
      282         1.000000          1                    1.000
      283         1.000000          1                    1.000
      284         1.000000          1                    1.000
      285         1.000000          1                    1.000
      286         1.000000          1                    1.000
      287         1.000000          1                    1.000
      288         1.000000          1                    1.000
      289         1.000000          1                    1.000
      290         1.000000          1                    1.000
      291         1.000000          1                    1.000
      292         1.000000          1                    1.000
      293         1.000000          1                    1.000
      294         1.000000          1                    1.000
      295         1.000000          1                    1.000
      296         1.000000          1                    1.000
      297         1.000000          1                    1.000
      298         1.000000          1                    1.000
      299         1.000000          1                    1.000
      300         1.000000          1                    1.000
      301         1.000000          1                    1.000
      302         1.000000          1                    1.000
      303         1.000000          1                    1.000
      304         1.000000          1                    1.000
      305         1.000000          1                    1.000
      306         1.000000          1                    1.000
      307         1.000000          1                    1.000
      308         1.000000          1                    1.000
      309         1.000000          1                    1.000
      310         1.000000          1                    1.000
      311         1.000000          1                    1.000
      312         1.000000          1                    1.000
      313         1.000000          1                    1.000
      314         1.000000          1                    1.000
      315         1.000000          1                    1.000
      316         1.000000          1                    1.000
      317         1.000000          1                    1.000
      318         1.000000          1                    1.000
      319         1.000000          1                    1.000
      320         1.000000          1                    1.000
      321         1.000000          1                    1.000
      322         1.000000          1                    1.000
      323         1.000000          1                    1.000
      324         1.000000          1                    1.000
      325         1.000000          1                    1.000
      326         1.000000          1                    1.000
      327         1.000000          1                    1.000
      328         1.000000          1                    1.000
      329         1.000000          1                    1.000
      330         1.000000          1                    1.000
      331         1.000000          1                    1.000
      332         1.000000          1                    1.000
      333         1.000000          1                    1.000
      334         1.000000          1                    1.000
      335         1.000000          1                    1.000
      336         1.000000          1                    1.000
      337         1.000000          1                    1.000
      338         1.000000          1                    1.000
      339         1.000000          1                    1.000
      340         1.000000          1                    1.000
      341         1.000000          1                    1.000
      342         1.000000          1                    1.000
      343         1.000000          1                    1.000
      344         1.000000          1                    1.000
      345         1.000000          1                    1.000
      346         1.000000          1                    1.000
      347         1.000000          1                    1.000
      348         1.000000          1                    1.000
      349         1.000000          1                    1.000
      350         1.000000          1                    1.000
      351         1.000000          1                    1.000
      352         1.000000          1                    1.000
      353         1.000000          1                    1.000
      354         1.000000          1                    1.000
      355         1.000000          1                    1.000
      356         1.000000          1                    1.000
      357         1.000000          1                    1.000
      358         1.000000          1                    1.000
      359         1.000000          1                    1.000
      360         1.000000          1                    1.000
      361         1.000000          1                    1.000
      362         1.000000          1                    1.000
      363         1.000000          1                    1.000
      364         1.000000          1                    1.000
      365         1.000000          1                    1.000
      366         1.000000          1                    1.000
      367         1.000000          1                    1.000
      368         1.000000          1                    1.000
      369         1.000000          1                    1.000
      370         1.000000          1                    1.000
      371         1.000000          1                    1.000
      372         1.000000          1                    1.000
      373         1.000000          1                    1.000
      374         1.000000          1                    1.000
      375         1.000000          1                    1.000
      376         1.000000          1                    1.000
      377         1.000000          1                    1.000
      378         1.000000          1                    1.000
      379         1.000000          1                    1.000
      380         1.000000          1                    1.000
      381         1.000000          1                    1.000
      382         1.000000          1                    1.000
      383         1.000000          1                    1.000
      384         1.000000          1                    1.000
      385         1.000000          1                    1.000
      386         1.000000          1                    1.000
      387         1.000000          1                    1.000
      388         1.000000          1                    1.000
      389         1.000000          1                    1.000
      390         1.000000          1                    1.000
      391         1.000000          1                    1.000
      392         1.000000          1                    1.000
      393         1.000000          1                    1.000
      394         1.000000          1                    1.000
      395         1.000000          1                    1.000
      396         1.000000          1                    1.000
      397         1.000000          1                    1.000
      398         1.000000          1                    1.000
      399         1.000000          1                    1.000
      400         1.000000          1                    1.000
      401         1.000000          1                    1.000
      402         1.000000          1                    1.000
      403         1.000000          1                    1.000
      404         1.000000          1                    1.000
      405         1.000000          1                    1.000
      406         1.000000          1                    1.000
      407         1.000000          1                    1.000
      408         1.000000          1                    1.000
      409         1.000000          1                    1.000
      410         1.000000          1                    1.000
      411         1.000000          1                    1.000
      412         1.000000          1                    1.000
      413         1.000000          1                    1.000
      414         1.000000          1                    1.000
      415         1.000000          1                    1.000
      416         1.000000          1                    1.000
      417         1.000000          1                    1.000
      418         1.000000          1                    1.000
      419         1.000000          1                    1.000
      420         1.000000          1                    1.000
      421         1.000000          1                    1.000
      422         1.000000          1                    1.000
      423         1.000000          1                    1.000
      424         1.000000          1                    1.000
      425         1.000000          1                    1.000
      426         1.000000          1                    1.000
      427         1.000000          1                    1.000
      428         1.000000          1                    1.000
      429         1.000000          1                    1.000
      430         1.000000          1                    1.000
      431         1.000000          1                    1.000
      432         1.000000          1                    1.000
      433         1.000000          1                    1.000
      434         1.000000          1                    1.000
      435         1.000000          1                    1.000
      436         1.000000          1                    1.000
      437         1.000000          1                    1.000
      438         1.000000          1                    1.000
      439         1.000000          1                    1.000
      440         1.000000          1                    1.000
      441         1.000000          1                    1.000
      442         1.000000          1                    1.000
      443         1.000000          1                    1.000
      444         1.000000          1                    1.000
      445         1.000000          1                    1.000
      446         1.000000          1                    1.000
      447         1.000000          1                    1.000
      448         1.000000          1                    1.000
      449         1.000000          1                    1.000
      450         1.000000          1                    1.000
      451         1.000000          1                    1.000
      452         1.000000          1                    1.000
      453         1.000000          1                    1.000
      454         1.000000          1                    1.000
      455         1.000000          1                    1.000
      456         1.000000          1                    1.000
      457         1.000000          1                    1.000
      458         1.000000          1                    1.000
      459         1.000000          1                    1.000
      460         1.000000          1                    1.000
      461         1.000000          1                    1.000
      462         1.000000          1                    1.000
      463         1.000000          1                    1.000
      464         1.000000          1                    1.000
      465         1.000000          1                    1.000
      466         1.000000          1                    1.000
      467         1.000000          1                    1.000
      468         1.000000          1                    1.000
      469         1.000000          1                    1.000
      470         1.000000          1                    1.000
      471         1.000000          1                    1.000
      472         1.000000          1                    1.000
      473         1.000000          1                    1.000
      474         1.000000          1                    1.000
      475         1.000000          1                    1.000
      476         1.000000          1                    1.000
      477         1.000000          1                    1.000
      478         1.000000          1                    1.000
      479         1.000000          1                    1.000
      480         1.000000          1                    1.000
      481         1.000000          1                    1.000
      482         1.000000          1                    1.000
      483         1.000000          1                    1.000
      484         1.000000          1                    1.000
      485         1.000000          1                    1.000
      486         1.000000          1                    1.000
      487         1.000000          1                    1.000
      488         1.000000          1                    1.000
      489         1.000000          1                    1.000
      490         1.000000          1                    1.000
      491         1.000000          1                    1.000
      492         1.000000          1                    1.000
      493         1.000000          1                    1.000
      494         1.000000          1                    1.000
      495         1.000000          1                    1.000
      496         1.000000          1                    1.000
      497         1.000000          1                    1.000
      498         1.000000          1                    1.000
      499         1.000000          1                    1.000
      500         1.000000          1                    1.000
      501         1.000000          1                    1.000
      502         1.000000          1                    1.000
      503         1.000000          1                    1.000
      504         1.000000          1                    1.000
      505         1.000000          1                    1.000
      506         1.000000          1                    1.000
      507         1.000000          1                    1.000
      508         1.000000          1                    1.000
      509         1.000000          1                    1.000
      510         1.000000          1                    1.000
      511         1.000000          1                    1.000
      512         1.000000          1                    1.000
      513         1.000000          1                    1.000
      514         1.000000          1                    1.000
      515         1.000000          1                    1.000
      516         1.000000          1                    1.000
      517         1.000000          1                    1.000
      518         1.000000          1                    1.000
      519         1.000000          1                    1.000
      520         1.000000          1                    1.000
      521         1.000000          1                    1.000
      522         1.000000          1                    1.000
      523         1.000000          1                    1.000
      524         1.000000          1                    1.000
      525         1.000000          1                    1.000
      526         1.000000          1                    1.000
      527         1.000000          1                    1.000
      528         1.000000          1                    1.000
      529         1.000000          1                    1.000
      530         1.000000          1                    1.000
      531         1.000000          1                    1.000
      532         1.000000          1                    1.000
      533         1.000000          1                    1.000
      534         1.000000          1                    1.000
      535         1.000000          1                    1.000
      536         1.000000          1                    1.000
      537         1.000000          1                    1.000
      538         1.000000          1                    1.000
      539         1.000000          1                    1.000
      540         1.000000          1                    1.000
      541         1.000000          1                    1.000
      542         1.000000          1                    1.000
      543         1.000000          1                    1.000
      544         1.000000          1                    1.000
      545         1.000000          1                    1.000
      546         1.000000          1                    1.000
      547         1.000000          1                    1.000
      548         1.000000          1                    1.000
      549         1.000000          1                    1.000
      550         1.000000          1                    1.000
      551         1.000000          1                    1.000
      552         1.000000          1                    1.000
      553         1.000000          1                    1.000
      554         1.000000          1                    1.000
      555         1.000000          1                    1.000
      556         1.000000          1                    1.000
      557         1.000000          1                    1.000
      558         1.000000          1                    1.000
      559         1.000000          1                    1.000
      560         1.000000          1                    1.000
      561         1.000000          1                    1.000
      562         1.000000          1                    1.000
      563         1.000000          1                    1.000
      564         1.000000          1                    1.000
      565         1.000000          1                    1.000
      566         1.000000          1                    1.000
      567         1.000000          1                    1.000
      568         1.000000          1                    1.000
      569         1.000000          1                    1.000
      570         1.000000          1                    1.000
      571         1.000000          1                    1.000
      572         1.000000          1                    1.000
      573         1.000000          1                    1.000
      574         1.000000          1                    1.000
      575         1.000000          1                    1.000
      576         1.000000          1                    1.000
      577         1.000000          1                    1.000
      578         1.000000          1                    1.000
      579         1.000000          1                    1.000
      580         1.000000          1                    1.000
      581         1.000000          1                    1.000
      582         1.000000          1                    1.000
      583         1.000000          1                    1.000
      584         1.000000          1                    1.000
      585         1.000000          1                    1.000
      586         1.000000          1                    1.000
      587         1.000000          1                    1.000
      588         1.000000          1                    1.000
      589         1.000000          1                    1.000
      590         1.000000          1                    1.000
      591         1.000000          1                    1.000
      592         1.000000          1                    1.000
      593         1.000000          1                    1.000
      594         1.000000          1                    1.000
      595         1.000000          1                    1.000
      596         1.000000          1                    1.000
      597         1.000000          1                    1.000
      598         1.000000          1                    1.000
      599         1.000000          1                    1.000
      600         1.000000          1                    1.000
      601         1.000000          1                    1.000
      602         1.000000          1                    1.000
      603         1.000000          1                    1.000
      604         1.000000          1                    1.000
      605         1.000000          1                    1.000
      606         1.000000          1                    1.000
      607         1.000000          1                    1.000
      608         1.000000          1                    1.000
      609         1.000000          1                    1.000
      610         1.000000          1                    1.000
      611         1.000000          1                    1.000
      612         1.000000          1                    1.000
      613         1.000000          1                    1.000
      614         1.000000          1                    1.000
      615         1.000000          1                    1.000
      616         1.000000          1                    1.000
      617         1.000000          1                    1.000
      618         1.000000          1                    1.000
      619         1.000000          1                    1.000
      620         1.000000          1                    1.000
      621         1.000000          1                    1.000
      622         1.000000          1                    1.000
      623         1.000000          1                    1.000
      624         1.000000          1                    1.000
      625         1.000000          1                    1.000
      626         1.000000          1                    1.000
      627         1.000000          1                    1.000
      628         1.000000          1                    1.000
      629         1.000000          1                    1.000
      630         1.000000          1                    1.000
      631         1.000000          1                    1.000
      632         1.000000          1                    1.000
      633         1.000000          1                    1.000
      634         1.000000          1                    1.000
      635         1.000000          1                    1.000
      636         1.000000          1                    1.000
      637         1.000000          1                    1.000
      638         1.000000          1                    1.000
      639         1.000000          1                    1.000
      640         1.000000          1                    1.000
      641         1.000000          1                    1.000
      642         1.000000          1                    1.000
      643         1.000000          1                    1.000
      644         1.000000          1                    1.000
      645         1.000000          1                    1.000
      646         1.000000          1                    1.000
      647         1.000000          1                    1.000
      648         1.000000          1                    1.000
      649         1.000000          1                    1.000
      650         1.000000          1                    1.000
      651         1.000000          1                    1.000
      652         1.000000          1                    1.000
      653         1.000000          1                    1.000
      654         1.000000          1                    1.000
      655         1.000000          1                    1.000
      656         1.000000          1                    1.000
      657         1.000000          1                    1.000
      658         1.000000          1                    1.000
      659         1.000000          1                    1.000
      660         1.000000          1                    1.000
      661         1.000000          1                    1.000
      662         1.000000          1                    1.000
      663         1.000000          1                    1.000
      664         1.000000          1                    1.000
      665         1.000000          1                    1.000
      666         1.000000          1                    1.000
      667         1.000000          1                    1.000
      668         1.000000          1                    1.000
      669         1.000000          1                    1.000
      670         1.000000          1                    1.000
      671         1.000000          1                    1.000
      672         1.000000          1                    1.000
      673         1.000000          1                    1.000
      674         1.000000          1                    1.000
      675         1.000000          1                    1.000
      676         1.000000          1                    1.000
      677         1.000000          1                    1.000
      678         1.000000          1                    1.000
      679         1.000000          1                    1.000
      680         1.000000          1                    1.000
      681         1.000000          1                    1.000
      682         1.000000          1                    1.000
      683         1.000000          1                    1.000
      684         1.000000          1                    1.000
      685         1.000000          1                    1.000
      686         1.000000          1                    1.000
      687         1.000000          1                    1.000
      688         1.000000          1                    1.000
      689         1.000000          1                    1.000
      690         1.000000          1                    1.000
      691         1.000000          1                    1.000
      692         1.000000          1                    1.000
      693         1.000000          1                    1.000
      694         1.000000          1                    1.000
      695         1.000000          1                    1.000
      696         1.000000          1                    1.000
      697         1.000000          1                    1.000
      698         1.000000          1                    1.000
      699         1.000000          1                    1.000
      700         1.000000          1                    1.000
      701         1.000000          1                    1.000
      702         1.000000          1                    1.000
      703         1.000000          1                    1.000
      704         1.000000          1                    1.000
      705         1.000000          1                    1.000
      706         1.000000          1                    1.000
      707         1.000000          1                    1.000
      708         1.000000          1                    1.000
      709         1.000000          1                    1.000
      710         1.000000          1                    1.000
      711         1.000000          1                    1.000
      712         1.000000          1                    1.000
      713         1.000000          1                    1.000
      714         1.000000          1                    1.000
      715         1.000000          1                    1.000
      716         1.000000          1                    1.000
      717         1.000000          1                    1.000
      718         1.000000          1                    1.000
      719         1.000000          1                    1.000
      720         1.000000          1                    1.000
      721         1.000000          1                    1.000
      722         1.000000          1                    1.000
      723         1.000000          1                    1.000
      724         1.000000          1                    1.000
      725         1.000000          1                    1.000
      726         1.000000          1                    1.000
      727         1.000000          1                    1.000
      728         1.000000          1                    1.000
      729         1.000000          1                    1.000
      730         1.000000          1                    1.000
      731         1.000000          1                    1.000
      732         1.000000          1                    1.000
      733         1.000000          1                    1.000
      734         1.000000          1                    1.000
      735         1.000000          1                    1.000
      736         1.000000          1                    1.000
      737         1.000000          1                    1.000
      738         1.000000          1                    1.000
      739         1.000000          1                    1.000
      740         1.000000          1                    1.000
      741         1.000000          1                    1.000
      742         1.000000          1                    1.000
      743         1.000000          1                    1.000
      744         1.000000          1                    1.000
      745         1.000000          1                    1.000
      746         1.000000          1                    1.000
      747         1.000000          1                    1.000
      748         1.000000          1                    1.000
      749         1.000000          1                    1.000
      750         1.000000          1                    1.000
      751         1.000000          1                    1.000
      752         1.000000          1                    1.000
      753         1.000000          1                    1.000
      754         1.000000          1                    1.000
      755         1.000000          1                    1.000
      756         1.000000          1                    1.000
      757         1.000000          1                    1.000
      758         1.000000          1                    1.000
      759         1.000000          1                    1.000
      760         1.000000          1                    1.000
      761         1.000000          1                    1.000
      762         1.000000          1                    1.000
      763         1.000000          1                    1.000
      764         1.000000          1                    1.000
      765         1.000000          1                    1.000
      766         1.000000          1                    1.000
      767         1.000000          1                    1.000
      768         1.000000          1                    1.000
      769         1.000000          1                    1.000
      770         1.000000          1                    1.000
      771         1.000000          1                    1.000
      772         1.000000          1                    1.000
      773         1.000000          1                    1.000
      774         1.000000          1                    1.000
      775         1.000000          1                    1.000
      776         1.000000          1                    1.000
      777         1.000000          1                    1.000
      778         1.000000          1                    1.000
      779         1.000000          1                    1.000
      780         1.000000          1                    1.000
      781         1.000000          1                    1.000
      782         1.000000          1                    1.000
      783         1.000000          1                    1.000
      784         1.000000          1                    1.000
      785         1.000000          1                    1.000
      786         1.000000          1                    1.000
      787         1.000000          1                    1.000
      788         1.000000          1                    1.000
      789         1.000000          1                    1.000
      790         1.000000          1                    1.000
      791         1.000000          1                    1.000
      792         1.000000          1                    1.000
      793         1.000000          1                    1.000
      794         1.000000          1                    1.000
      795         1.000000          1                    1.000
      796         1.000000          1                    1.000
      797         1.000000          1                    1.000
      798         1.000000          1                    1.000
      799         1.000000          1                    1.000
      800         1.000000          1                    1.000
      801         1.000000          1                    1.000
      802         1.000000          1                    1.000
      803         1.000000          1                    1.000
      804         1.000000          1                    1.000
      805         1.000000          1                    1.000
      806         1.000000          1                    1.000
      807         1.000000          1                    1.000
      808         1.000000          1                    1.000
      809         1.000000          1                    1.000
      810         1.000000          1                    1.000
      811         1.000000          1                    1.000
      812         1.000000          1                    1.000
      813         1.000000          1                    1.000
      814         1.000000          1                    1.000
      815         1.000000          1                    1.000
      816         1.000000          1                    1.000
      817         1.000000          1                    1.000
      818         1.000000          1                    1.000
      819         1.000000          1                    1.000
      820         1.000000          1                    1.000
      821         1.000000          1                    1.000
      822         1.000000          1                    1.000
      823         1.000000          1                    1.000
      824         1.000000          1                    1.000
      825         1.000000          1                    1.000
      826         1.000000          1                    1.000
      827         1.000000          1                    1.000
      828         1.000000          1                    1.000
      829         1.000000          1                    1.000
      830         1.000000          1                    1.000
      831         1.000000          1                    1.000
      832         1.000000          1                    1.000
      833         1.000000          1                    1.000
      834         1.000000          1                    1.000
      835         1.000000          1                    1.000
      836         1.000000          1                    1.000
      837         1.000000          1                    1.000
      838         1.000000          1                    1.000
      839         1.000000          1                    1.000
      840         1.000000          1                    1.000
      841         1.000000          1                    1.000
      842         1.000000          1                    1.000
      843         1.000000          1                    1.000
      844         1.000000          1                    1.000
      845         1.000000          1                    1.000
      846         1.000000          1                    1.000
      847         1.000000          1                    1.000
      848         1.000000          1                    1.000
      849         1.000000          1                    1.000
      850         1.000000          1                    1.000
      851         1.000000          1                    1.000
      852         1.000000          1                    1.000
      853         1.000000          1                    1.000
      854         1.000000          1                    1.000
      855         1.000000          1                    1.000
      856         1.000000          1                    1.000
      857         1.000000          1                    1.000
      858         1.000000          1                    1.000
      859         1.000000          1                    1.000
      860         1.000000          1                    1.000
      861         1.000000          1                    1.000
      862         1.000000          1                    1.000
      863         1.000000          1                    1.000
      864         1.000000          1                    1.000
      865         1.000000          1                    1.000
      866         1.000000          1                    1.000
      867         1.000000          1                    1.000
      868         1.000000          1                    1.000
      869         1.000000          1                    1.000
      870         1.000000          1                    1.000
      871         1.000000          1                    1.000
      872         1.000000          1                    1.000
      873         1.000000          1                    1.000
      874         1.000000          1                    1.000
      875         1.000000          1                    1.000
      876         1.000000          1                    1.000
      877         1.000000          1                    1.000
      878         1.000000          1                    1.000
      879         1.000000          1                    1.000
      880         1.000000          1                    1.000
      881         1.000000          1                    1.000
      882         1.000000          1                    1.000
      883         1.000000          1                    1.000
      884         1.000000          1                    1.000
      885         1.000000          1                    1.000
      886         1.000000          1                    1.000
      887         1.000000          1                    1.000
      888         1.000000          1                    1.000
      889         1.000000          1                    1.000
      890         1.000000          1                    1.000
      891         1.000000          1                    1.000
      892         1.000000          1                    1.000
      893         1.000000          1                    1.000
      894         1.000000          1                    1.000
      895         1.000000          1                    1.000
      896         1.000000          1                    1.000
      897         1.000000          1                    1.000
      898         1.000000          1                    1.000
      899         1.000000          1                    1.000
      900         1.000000          1                    1.000
      901         1.000000          1                    1.000
      902         1.000000          1                    1.000
      903         1.000000          1                    1.000
      904         1.000000          1                    1.000
      905         1.000000          1                    1.000
      906         1.000000          1                    1.000
      907         1.000000          1                    1.000
      908         1.000000          1                    1.000
      909         1.000000          1                    1.000
      910         1.000000          1                    1.000
      911         1.000000          1                    1.000
      912         1.000000          1                    1.000
      913         1.000000          1                    1.000
      914         1.000000          1                    1.000
      915         1.000000          1                    1.000
      916         1.000000          1                    1.000
      917         1.000000          1                    1.000
      918         1.000000          1                    1.000
      919         1.000000          1                    1.000
      920         1.000000          1                    1.000
      921         1.000000          1                    1.000
      922         1.000000          1                    1.000
      923         1.000000          1                    1.000
      924         1.000000          1                    1.000
      925         1.000000          1                    1.000
      926         1.000000          1                    1.000
      927         1.000000          1                    1.000
      928         1.000000          1                    1.000
      929         1.000000          1                    1.000
      930         1.000000          1                    1.000
      931         1.000000          1                    1.000
      932         1.000000          1                    1.000
      933         1.000000          1                    1.000
      934         1.000000          1                    1.000
      935         1.000000          1                    1.000
      936         1.000000          1                    1.000
      937         1.000000          1                    1.000
      938         1.000000          1                    1.000
      939         1.000000          1                    1.000
      940         1.000000          1                    1.000
      941         1.000000          1                    1.000
      942         1.000000          1                    1.000
      943         1.000000          1                    1.000
      944         1.000000          1                    1.000
      945         1.000000          1                    1.000
      946         1.000000          1                    1.000
      947         1.000000          1                    1.000
      948         1.000000          1                    1.000
      949         1.000000          1                    1.000
      950         1.000000          1                    1.000
      951         1.000000          1                    1.000
      952         1.000000          1                    1.000
      953         1.000000          1                    1.000
      954         1.000000          1                    1.000
      955         1.000000          1                    1.000
      956         1.000000          1                    1.000
      957         1.000000          1                    1.000
      958         1.000000          1                    1.000
      959         1.000000          1                    1.000
      960         1.000000          1                    1.000
      961         1.000000          1                    1.000
      962         1.000000          1                    1.000
      963         1.000000          1                    1.000
      964         1.000000          1                    1.000
      965         1.000000          1                    1.000
      966         1.000000          1                    1.000
      967         1.000000          1                    1.000
      968         1.000000          1                    1.000
      969         1.000000          1                    1.000
      970         1.000000          1                    1.000
      971         1.000000          1                    1.000
      972         1.000000          1                    1.000
      973         1.000000          1                    1.000
      974         1.000000          1                    1.000
      975         1.000000          1                    1.000
      976         1.000000          1                    1.000
      977         1.000000          1                    1.000
      978         1.000000          1                    1.000
      979         1.000000          1                    1.000
      980         1.000000          1                    1.000
      981         1.000000          1                    1.000
      982         1.000000          1                    1.000
      983         1.000000          1                    1.000
      984         1.000000          1                    1.000
      985         1.000000          1                    1.000
      986         1.000000          1                    1.000
      987         1.000000          1                    1.000
      988         1.000000          1                    1.000
      989         1.000000          1                    1.000
      990         1.000000          1                    1.000
      991         1.000000          1                    1.000
      992         1.000000          1                    1.000
      993         1.000000          1                    1.000
      994         1.000000          1                    1.000
      995         1.000000          1                    1.000
      996         1.000000          1                    1.000
      997         1.000000          1                    1.000
      998         1.000000          1                    1.000
      999         1.000000          1                    1.000
     1000         1.000000          1                    1.000
     1001         1.000000          1                    1.000
     1002         1.000000          1                    1.000
     1003         1.000000          1                    1.000
     1004         1.000000          1                    1.000
     1005         1.000000          1                    1.000
     1006         1.000000          1                    1.000
     1007         1.000000          1                    1.000
     1008         1.000000          1                    1.000
     1009         1.000000          1                    1.000
     1010         1.000000          1                    1.000
     1011         1.000000          1                    1.000
     1012         1.000000          1                    1.000
     1013         1.000000          1                    1.000
     1014         1.000000          1                    1.000
     1015         1.000000          1                    1.000
     1016         1.000000          1                    1.000
     1017         1.000000          1                    1.000
     1018         1.000000          1                    1.000
     1019         1.000000          1                    1.000
     1020         1.000000          1                    1.000
     1021         1.000000          1                    1.000
     1022         1.000000          1                    1.000
     1023         1.000000          1                    1.000
     1024         1.000000          1                    1.000
     1025         1.000000          1                    1.000
     1026         1.000000          1                    1.000
     1027         1.000000          1                    1.000
     1028         1.000000          1                    1.000
     1029         1.000000          1                    1.000
     1030         1.000000          1                    1.000
     1031         1.000000          1                    1.000
     1032         1.000000          1                    1.000
     1033         1.000000          1                    1.000
     1034         1.000000          1                    1.000
     1035         1.000000          1                    1.000
     1036         1.000000          1                    1.000
     1037         1.000000          1                    1.000
     1038         1.000000          1                    1.000
     1039         1.000000          1                    1.000
     1040         1.000000          1                    1.000
     1041         1.000000          1                    1.000
     1042         1.000000          1                    1.000
     1043         1.000000          1                    1.000
     1044         1.000000          1                    1.000
     1045         1.000000          1                    1.000
     1046         1.000000          1                    1.000
     1047         1.000000          1                    1.000
     1048         1.000000          1                    1.000
     1049         1.000000          1                    1.000
     1050         1.000000          1                    1.000
     1051         1.000000          1                    1.000
     1052         1.000000          1                    1.000
     1053         1.000000          1                    1.000
     1054         1.000000          1                    1.000
     1055         1.000000          1                    1.000
     1056         1.000000          1                    1.000
     1057         1.000000          1                    1.000
     1058         1.000000          1                    1.000
     1059         1.000000          1                    1.000
     1060         1.000000          1                    1.000
     1061         1.000000          1                    1.000
     1062         1.000000          1                    1.000
     1063         1.000000          1                    1.000
     1064         1.000000          1                    1.000
     1065         1.000000          1                    1.000
     1066         1.000000          1                    1.000
     1067         1.000000          1                    1.000
     1068         1.000000          1                    1.000
     1069         1.000000          1                    1.000
     1070         1.000000          1                    1.000
     1071         1.000000          1                    1.000
     1072         1.000000          1                    1.000
     1073         1.000000          1                    1.000
     1074         1.000000          1                    1.000
     1075         1.000000          1                    1.000
     1076         1.000000          1                    1.000
     1077         1.000000          1                    1.000
     1078         1.000000          1                    1.000
     1079         1.000000          1                    1.000
     1080         1.000000          1                    1.000
     1081         1.000000          1                    1.000
     1082         1.000000          1                    1.000
     1083         1.000000          1                    1.000
     1084         1.000000          1                    1.000
     1085         1.000000          1                    1.000
     1086         1.000000          1                    1.000
     1087         1.000000          1                    1.000
     1088         1.000000          1                    1.000
     1089         1.000000          1                    1.000
     1090         1.000000          1                    1.000
     1091         1.000000          1                    1.000
     1092         1.000000          1                    1.000
     1093         1.000000          1                    1.000
     1094         1.000000          1                    1.000
     1095         1.000000          1                    1.000
     1096         1.000000          1                    1.000
     1097         1.000000          1                    1.000
 END OF TDIS PERIODDATA
 END OF SIMULATION TIMING

 READING SIMULATION MODELS
    GWF6 model TRANSIENT will be created as model 1
 END OF SIMULATION MODELS

 READING SIMULATION EXCHANGES
 END OF SIMULATION EXCHANGES

 READING SOLUTIONGROUP

 Creating solution: SLN_1           

 OPENED TRANSIENT.ims
 FILE TYPE:IMS   UNIT 1014   STATUS:OLD                 
 FORMAT:FORMATTED              ACCESS:SEQUENTIAL          
 ACTION:READ                

 END OF SIMULATION SOLUTIONGROUP

 IMS -- ITERATIVE MODEL SOLUTION PACKAGE, VERSION 6, 4/28/2017
         INPUT READ FROM UNIT 1014
 # File generated by Flopy version 3.3.5 on 06/19/2023 at 17:35:19.

 PROCESSING IMS OPTIONS
 COMPLEX OPTION:
 DEFAULT SOLVER INPUT VALUES REFLECT STRONGLY NONLINEAR MODEL
 END OF IMS OPTIONS
 **UNDER-RELAXATION WILL BE USED***
 
 ***IMS LINEAR SOLVER WILL BE USED***

 IMSLINEAR -- UNSTRUCTURED LINEAR SOLUTION PACKAGE, VERSION 8, 04/28/2017
 
 OUTER ITERATION CONVERGENCE CRITERION    (DVCLOSE) =    0.100000E+00
 MAXIMUM NUMBER OF OUTER ITERATIONS        (MXITER) = 100
 SOLVER PRINTOUT INDEX                     (IPRIMS) = 0
 NONLINEAR ITERATION METHOD            (NONLINMETH) = 3
 LINEAR SOLUTION METHOD                   (LINMETH) = 1
 UNDER-RELAXATION WEIGHT REDUCTION FACTOR   (THETA) =    0.800000E+00
 UNDER-RELAXATION WEIGHT INCREASE INCREMENT (KAPPA) =    0.100000E-03
 UNDER-RELAXATION PREVIOUS HISTORY FACTOR   (GAMMA) =    0.000000E+00
 UNDER-RELAXATION MOMENTUM TERM         (AMOMENTUM) =    0.000000E+00
 MAXIMUM NUMBER OF BACKTRACKS            (NUMTRACK) = 20
 BACKTRACKING TOLERANCE FACTOR               (BTOL) =    0.105000E+01
 BACKTRACKING REDUCTION FACTOR             (BREDUC) =    0.100000E+00
 BACKTRACKING RESIDUAL LIMIT              (RES_LIM) =    0.200000E-02

       SOLUTION BY THE BICONJUGATE-GRADIENT STABILIZED METHOD
 ------------------------------------------------------------------
 MAXIMUM OF 100 CALLS OF SOLUTION ROUTINE
 MAXIMUM OF 500 INTERNAL ITERATIONS PER CALL TO SOLUTION ROUTINE
 LINEAR ACCELERATION METHOD            = BCGS      
 MATRIX PRECONDITIONING TYPE           = INCOMPLETE LUT      
 MATRIX SCALING APPROACH               = NO SCALING          
 MATRIX REORDERING APPROACH            = ORIGINAL ORDERING        
 NUMBER OF ORTHOGONALIZATIONS          = 2
 HEAD CHANGE CRITERION FOR CLOSURE     =    0.10000E+00
 RESIDUAL CHANGE CRITERION FOR CLOSURE =    0.10000E+00
 RESIDUAL CONVERGENCE OPTION           = 0
 RESIDUAL CONVERGENCE NORM             = INFINITY NORM   
 RELAXATION FACTOR                     =    0.00000E+00
 NUMBER OF LEVELS                      =              5
 DROP TOLERANCE                        =    0.10000E-03


 
    Solving:  Stress period:     1    Time step:     1
 
1
                            STRESS PERIOD NO. 1, LENGTH =   1.000000    
                            -----------------------------------------------
                            NUMBER OF TIME STEPS = 1
                            MULTIPLIER FOR DELT =     1.000
                            INITIAL TIME STEP SIZE =   1.000000    
 
    Solving:  Stress period:     2    Time step:     1
 
1
                            STRESS PERIOD NO. 2, LENGTH =   1.000000    
                            -----------------------------------------------
                            NUMBER OF TIME STEPS = 1
                            MULTIPLIER FOR DELT =     1.000
                            INITIAL TIME STEP SIZE =   1.000000    
 
    Solving:  Stress period:     3    Time step:     1
 
1
                            STRESS PERIOD NO. 3, LENGTH =   1.000000    
                            -----------------------------------------------
                            NUMBER OF TIME STEPS = 1
                            MULTIPLIER FOR DELT =     1.000
                            INITIAL TIME STEP SIZE =   1.000000    
 
    Solving:  Stress period:     4    Time step:     1
 
1
                            STRESS PERIOD NO. 4, LENGTH =   1.000000    
                            -----------------------------------------------
                            NUMBER OF TIME STEPS = 1
                            MULTIPLIER FOR DELT =     1.000
                            INITIAL TIME STEP SIZE =   1.000000    
 
    Solving:  Stress period:     5    Time step:     1
 
1
                            STRESS PERIOD NO. 5, LENGTH =   1.000000    
                            -----------------------------------------------
                            NUMBER OF TIME STEPS = 1
                            MULTIPLIER FOR DELT =     1.000
                            INITIAL TIME STEP SIZE =   1.000000    
 
    Solving:  Stress period:     6    Time step:     1
 
1
                            STRESS PERIOD NO. 6, LENGTH =   1.000000    
                            -----------------------------------------------
                            NUMBER OF TIME STEPS = 1
                            MULTIPLIER FOR DELT =     1.000
                            INITIAL TIME STEP SIZE =   1.000000    
 
    Solving:  Stress period:     7    Time step:     1
 
1
                            STRESS PERIOD NO. 7, LENGTH =   1.000000    
                            -----------------------------------------------
                            NUMBER OF TIME STEPS = 1
                            MULTIPLIER FOR DELT =     1.000
                            INITIAL TIME STEP SIZE =   1.000000    
 
    Solving:  Stress period:     8    Time step:     1
 
1
                            STRESS PERIOD NO. 8, LENGTH =   1.000000    
                            -----------------------------------------------
                            NUMBER OF TIME STEPS = 1
                            MULTIPLIER FOR DELT =     1.000
                            INITIAL TIME STEP SIZE =   1.000000    
 
    Solving:  Stress period:     9    Time step:     1
 
1
                            STRESS PERIOD NO. 9, LENGTH =   1.000000    
                            -----------------------------------------------
                            NUMBER OF TIME STEPS = 1
                            MULTIPLIER FOR DELT =     1.000
                            INITIAL TIME STEP SIZE =   1.000000    
 
    Solving:  Stress period:    10    Time step:     1
 
1
                            STRESS PERIOD NO. 10, LENGTH =   1.000000    
                            -----------------------------------------------
                            NUMBER OF TIME STEPS = 1
                            MULTIPLIER FOR DELT =     1.000
                            INITIAL TIME STEP SIZE =   1.000000    
 
    Solving:  Stress period:    11    Time step:     1
 
1
                            STRESS PERIOD NO. 11, LENGTH =   1.000000    
                            -----------------------------------------------
                            NUMBER OF TIME STEPS = 1
                            MULTIPLIER FOR DELT =     1.000
                            INITIAL TIME STEP SIZE =   1.000000    
 
    Solving:  Stress period:    12    Time step:     1
 
1
                            STRESS PERIOD NO. 12, LENGTH =   1.000000    
                            -----------------------------------------------
                            NUMBER OF TIME STEPS = 1
                            MULTIPLIER FOR DELT =     1.000
                            INITIAL TIME STEP SIZE =   1.000000    
 
    Solving:  Stress period:    13    Time step:     1
 
1
                            STRESS PERIOD NO. 13, LENGTH =   1.000000    
                            -----------------------------------------------
                            NUMBER OF TIME STEPS = 1
                            MULTIPLIER FOR DELT =     1.000
                            INITIAL TIME STEP SIZE =   1.000000    
 
    Solving:  Stress period:    14    Time step:     1
 
1
                            STRESS PERIOD NO. 14, LENGTH =   1.000000    
                            -----------------------------------------------
                            NUMBER OF TIME STEPS = 1
                            MULTIPLIER FOR DELT =     1.000
                            INITIAL TIME STEP SIZE =   1.000000    
 
    Solving:  Stress period:    15    Time step:     1
 
1
[...]
 TRANSIENT/CON                     NJA              INTEGER                             1 --                                                
 TRANSIENT/CON                     NJAS             INTEGER                             1 --                                                
 TRANSIENT/CON                     IANGLEX          INTEGER                             1 --                                                
 TRANSIENT/CON                     IA               INTEGER                        187612 --                                                
 TRANSIENT/CON                     JA               INTEGER                        935383 --                                                
 TRANSIENT/CON                     ISYM             INTEGER                        935383 --                                                
 TRANSIENT/CON                     JAS              INTEGER                        935383 --                                                
 TRANSIENT/CON                     HWVA             DOUBLE                         373886 --                                                
 TRANSIENT/CON                     ANGLEX           DOUBLE                         373886 --                                                
 TRANSIENT/CON                     IHC              INTEGER                        373886 --                                                
 TRANSIENT/CON                     CL1              DOUBLE                         373886 --                                                
 TRANSIENT/CON                     CL2              DOUBLE                         373886 --                                                
 TRANSIENT/CON                     IAUSR            INTEGER                        390195 --                                                
 TRANSIENT/CON                     JAUSR            INTEGER                        935383 --                                                
 TRANSIENT                         XOLD             DOUBLE                         187611 --                                                
 TRANSIENT                         FLOWJA           DOUBLE                         935383 --                                                
 TRANSIENT                         IDXGLO           INTEGER                        935383 --                                                
 SLN_1                             IA               INTEGER                        187612 --                                                
 SLN_1                             X                DOUBLE                         187611 --                                                
 SLN_1                             RHS              DOUBLE                         187611 --                                                
 SLN_1                             IACTIVE          INTEGER                        187611 --                                                
 SLN_1                             XTEMP            DOUBLE                         187611 --                                                
 SLN_1                             DXOLD            DOUBLE                         187611 --                                                
 SLN_1                             HNCG             DOUBLE                            100 --                                                
 SLN_1                             LRCH             INTEGER                           300 --                                                
 SLN_1                             WSAVE            DOUBLE                         187611 --                                                
 SLN_1                             HCHOLD           DOUBLE                         187611 --                                                
 SLN_1                             DEOLD            DOUBLE                         187611 --                                                
 SLN_1                             CONVMODSTART     INTEGER                             2 --                                                
 SLN_1                             LOCDV            INTEGER                             1 --                                                
 SLN_1                             LOCDR            INTEGER                             1 --                                                
 SLN_1                             ITINNER          INTEGER                             1 --                                                
 SLN_1                             CONVLOCDV        INTEGER                             1 --                                                
 SLN_1                             CONVLOCDR        INTEGER                             1 --                                                
 SLN_1                             DVMAX            DOUBLE                              1 --                                                
 SLN_1                             DRMAX            DOUBLE                              1 --                                                
 SLN_1                             CONVDVMAX        DOUBLE                              1 --                                                
 SLN_1                             CONVDRMAX        DOUBLE                              1 --                                                
 TRANSIENT                         X                DOUBLE                         187611 SLN_1/X                                           
 TRANSIENT                         RHS              DOUBLE                         187611 SLN_1/RHS                                         
 TRANSIENT                         IBOUND           INTEGER                        187611 SLN_1/IBOUND                                      
 SLN_1                             JA               INTEGER                        935383 --                                                
 SLN_1                             AMAT             DOUBLE                         935383 --                                                
 TRANSIENT/IC                      STRT             DOUBLE                         187611 --                                                
 TRANSIENT/NPF                     ICELLTYPE        INTEGER                        187611 --                                                
 TRANSIENT/NPF                     K11              DOUBLE                         187611 --                                                
 TRANSIENT/NPF                     SAT              DOUBLE                         187611 --                                                
 TRANSIENT/NPF                     CONDSAT          DOUBLE                         373886 --                                                
 TRANSIENT/NPF                     K22              DOUBLE                         187611 TRANSIENT/NPF/K11                                 
 TRANSIENT/NPF                     K33              DOUBLE                         187611 TRANSIENT/NPF/K11                                 
 TRANSIENT/NPF                     WETDRY           DOUBLE                              1 --                                                
 TRANSIENT/NPF                     ANGLE1           DOUBLE                              1 --                                                
 TRANSIENT/NPF                     ANGLE2           DOUBLE                              1 --                                                
 TRANSIENT/NPF                     ANGLE3           DOUBLE                              1 --                                                
 TRANSIENT/NPF                     IBOTNODE         INTEGER                        187611 --                                                
 TRANSIENT/NPF                     SPDIS            DOUBLE                              0 --                                                
 TRANSIENT/NPF                     NODEDGE          INTEGER                             0 --                                                
 TRANSIENT/NPF                     IHCEDGE          INTEGER                             0 --                                                
 TRANSIENT/NPF                     PROPSEDGE        DOUBLE                              0 --                                                
 TRANSIENT/STO                     ICONVERT         INTEGER                        187611 --                                                
 TRANSIENT/STO                     SS               DOUBLE                         187611 --                                                
 TRANSIENT/STO                     SY               DOUBLE                         187611 --                                                
 TRANSIENT/STO                     STRGSS           DOUBLE                         187611 --                                                
 TRANSIENT/STO                     STRGSY           DOUBLE                         187611 --                                                
 TRANSIENT/WEL_0                   NODELIST         INTEGER                        187611 --                                                
 TRANSIENT/WEL_0                   NOUPDATEAUXVAR   INTEGER                             0 --                                                
 TRANSIENT/WEL_0                   BOUND            DOUBLE                         187611 --                                                
 TRANSIENT/WEL_0                   HCOF             DOUBLE                         187611 --                                                
 TRANSIENT/WEL_0                   RHS              DOUBLE                         187611 --                                                
 TRANSIENT/WEL_0                   SIMVALS          DOUBLE                         187611 --                                                
 TRANSIENT/WEL_0                   SIMTOMVR         DOUBLE                              0 --                                                
 TRANSIENT/WEL_0                   AUXVAR           DOUBLE                              0 --                                                
 TRANSIENT/DRN_0                   NODELIST         INTEGER                        187611 --                                                
 TRANSIENT/DRN_0                   NOUPDATEAUXVAR   INTEGER                             0 --                                                
 TRANSIENT/DRN_0                   BOUND            DOUBLE                         375222 --                                                
 TRANSIENT/DRN_0                   HCOF             DOUBLE                         187611 --                                                
 TRANSIENT/DRN_0                   RHS              DOUBLE                         187611 --                                                
 TRANSIENT/DRN_0                   SIMVALS          DOUBLE                         187611 --                                                
 TRANSIENT/DRN_0                   SIMTOMVR         DOUBLE                              0 --                                                
 TRANSIENT/DRN_0                   AUXVAR           DOUBLE                              0 --                                                
 TRANSIENT/RCH_0                   NODELIST         INTEGER                        187611 --                                                
 TRANSIENT/RCH_0                   NOUPDATEAUXVAR   INTEGER                             0 --                                                
 TRANSIENT/RCH_0                   BOUND            DOUBLE                         187611 --                                                
 TRANSIENT/RCH_0                   HCOF             DOUBLE                         187611 --                                                
 TRANSIENT/RCH_0                   RHS              DOUBLE                         187611 --                                                
 TRANSIENT/RCH_0                   SIMVALS          DOUBLE                         187611 --                                                
 TRANSIENT/RCH_0                   SIMTOMVR         DOUBLE                              0 --                                                
 TRANSIENT/RCH_0                   AUXVAR           DOUBLE                              0 --                                                
 SLN_1/IMSLinear                   IOUT             INTEGER                             1 --                                                
 SLN_1/IMSLinear                   ILINMETH         INTEGER                             1 --                                                
 SLN_1/IMSLinear                   ITER1            INTEGER                             1 --                                                
 SLN_1/IMSLinear                   IPC              INTEGER                             1 --                                                
 SLN_1/IMSLinear                   ISCL             INTEGER                             1 --                                                
 SLN_1/IMSLinear                   IORD             INTEGER                             1 --                                                
 SLN_1/IMSLinear                   NORTH            INTEGER                             1 --                                                
 SLN_1/IMSLinear                   ICNVGOPT         INTEGER                             1 --                                                
 SLN_1/IMSLinear                   IACPC            INTEGER                             1 --                                                
 SLN_1/IMSLinear                   NITERC           INTEGER                             1 --                                                
 SLN_1/IMSLinear                   NIABCGS          INTEGER                             1 --                                                
 SLN_1/IMSLinear                   NIAPC            INTEGER                             1 --                                                
 SLN_1/IMSLinear                   NJAPC            INTEGER                             1 --                                                
 SLN_1/IMSLinear                   DVCLOSE          DOUBLE                              1 --                                                
 SLN_1/IMSLinear                   RCLOSE           DOUBLE                              1 --                                                
 SLN_1/IMSLinear                   RELAX            DOUBLE                              1 --                                                
 SLN_1/IMSLinear                   EPFACT           DOUBLE                              1 --                                                
 SLN_1/IMSLinear                   L2NORM0          DOUBLE                              1 --                                                
 SLN_1/IMSLinear                   DROPTOL          DOUBLE                              1 --                                                
 SLN_1/IMSLinear                   LEVEL            INTEGER                             1 --                                                
 SLN_1/IMSLinear                   NJLU             INTEGER                             1 --                                                
 SLN_1/IMSLinear                   NJW              INTEGER                             1 --                                                
 SLN_1/IMSLinear                   NWLU             INTEGER                             1 --                                                
 SLN_1/IMSLinear                   DSCALE           DOUBLE                              1 --                                                
 SLN_1/IMSLinear                   DSCALE2          DOUBLE                              1 --                                                
 SLN_1/IMSLinear                   IAPC             INTEGER                        187612 --                                                
 SLN_1/IMSLinear                   JAPC             INTEGER                       2063721 --                                                
 SLN_1/IMSLinear                   APC              DOUBLE                        2063721 --                                                
 SLN_1/IMSLinear                   IW               INTEGER                        187611 --                                                
 SLN_1/IMSLinear                   W                DOUBLE                         187611 --                                                
 SLN_1/IMSLinear                   JLU              INTEGER                       2063721 --                                                
 SLN_1/IMSLinear                   JW               INTEGER                        375222 --                                                
 SLN_1/IMSLinear                   WLU              DOUBLE                         187612 --                                                
 SLN_1/IMSLinear                   LORDER           INTEGER                             1 --                                                
 SLN_1/IMSLinear                   IORDER           INTEGER                             1 --                                                
 SLN_1/IMSLinear                   IARO             INTEGER                             2 --                                                
 SLN_1/IMSLinear                   JARO             INTEGER                             1 --                                                
 SLN_1/IMSLinear                   ARO              DOUBLE                              1 --                                                
 SLN_1/IMSLinear                   ID               INTEGER                        187611 --                                                
 SLN_1/IMSLinear                   D                DOUBLE                         187611 --                                                
 SLN_1/IMSLinear                   P                DOUBLE                         187611 --                                                
 SLN_1/IMSLinear                   Q                DOUBLE                         187611 --                                                
 SLN_1/IMSLinear                   Z                DOUBLE                         187611 --                                                
 SLN_1/IMSLinear                   T                DOUBLE                         187611 --                                                
 SLN_1/IMSLinear                   V                DOUBLE                         187611 --                                                
 SLN_1/IMSLinear                   DHAT             DOUBLE                         187611 --                                                
 SLN_1/IMSLinear                   PHAT             DOUBLE                         187611 --                                                
 SLN_1/IMSLinear                   QHAT             DOUBLE                         187611 --                                                
 -------------------------------------------------------------------------------------------------------------------------------------------



 MEMORY MANAGER TOTAL STORAGE BY DATA TYPE, IN MEGABYTES
 -------------------------------
                    ALLOCATED   
 DATA TYPE           MEMORY     
 -------------------------------
 Character        2.03300000E-03
 Logical          4.40000000E-05
 Integer          57.961440     
 Real             118.87175     
 -------------------------------
 Total            176.83527     
 -------------------------------


 
 Run end date and time (yyyy/mm/dd hh:mm:ss): 2023/06/19 19:12:24
 Elapsed run time:  1 Hours, 36 Minutes, 49 Seconds
 Normal termination of simulation.
