                                   MODFLOW 6
                U.S. GEOLOGICAL SURVEY MODULAR HYDROLOGIC MODEL
                          GROUNDWATER FLOW MODEL (GWF)
                            VERSION 6.2.2 07/30/2021

   MODFLOW 6 compiled Jul 31 2021 14:59:11 with IFORT compiler (ver. 20.21.2)

This software has been approved for release by the U.S. Geological 
Survey (USGS). Although the software has been subjected to rigorous 
review, the USGS reserves the right to update the software as needed 
pursuant to further analysis and review. No warranty, expressed or 
implied, is made by the USGS or the U.S. Government as to the 
functionality of the software and related material nor shall the 
fact of release constitute any such warranty. Furthermore, the 
software is released on condition that neither the USGS nor the U.S. 
Government shall be held liable for any damages resulting from its 
authorized or unauthorized use. Also refer to the USGS Water 
Resources Software User Rights Notice for complete use, copyright, 
and distribution information.


System command used to initiate simulation:
python  c:\GitHub\CWatM\run_cwatm.py settings_CWatM-Bhima-30sec-contemporary.ini -l

MODFLOW was compiled using uniform precision.

Real Variables
  KIND: 8
  TINY (smallest non-zero value):    2.225074-308
  HUGE (largest value):    1.797693+308
  PRECISION: 15
  BIT SIZE: 64

Integer Variables
  KIND: 4
  HUGE (largest value): 2147483647
  BIT SIZE: 32

Long Integer Variables
  KIND: 8
  HUGE (largest value): 9223372036854775807
  BIT SIZE: 64

Logical Variables
  KIND: 4
  BIT SIZE: 32
 

 OPENED .\TRANSIENT.dis
 FILE TYPE:DIS6                   UNIT 1006   STATUS:OLD                 
 FORMAT:FORMATTED              ACCESS:SEQUENTIAL          
 ACTION:READ                


 OPENED .\TRANSIENT.ic
 FILE TYPE:IC6                    UNIT 1007   STATUS:OLD                 
 FORMAT:FORMATTED              ACCESS:SEQUENTIAL          
 ACTION:READ                


 OPENED .\TRANSIENT.npf
 FILE TYPE:NPF6                   UNIT 1008   STATUS:OLD                 
 FORMAT:FORMATTED              ACCESS:SEQUENTIAL          
 ACTION:READ                


 OPENED .\TRANSIENT.oc
 FILE TYPE:OC6                    UNIT 1009   STATUS:OLD                 
 FORMAT:FORMATTED              ACCESS:SEQUENTIAL          
 ACTION:READ                


 OPENED .\TRANSIENT.sto
 FILE TYPE:STO6                   UNIT 1010   STATUS:OLD                 
 FORMAT:FORMATTED              ACCESS:SEQUENTIAL          
 ACTION:READ                


 OPENED .\TRANSIENT.rch
 FILE TYPE:RCH6                   UNIT 1011   STATUS:OLD                 
 FORMAT:FORMATTED              ACCESS:SEQUENTIAL          
 ACTION:READ                


 OPENED .\TRANSIENT.wel
 FILE TYPE:WEL6                   UNIT 1012   STATUS:OLD                 
 FORMAT:FORMATTED              ACCESS:SEQUENTIAL          
 ACTION:READ                


 OPENED .\TRANSIENT.drn
 FILE TYPE:DRN6                   UNIT 1013   STATUS:OLD                 
 FORMAT:FORMATTED              ACCESS:SEQUENTIAL          
 ACTION:READ                

 NAMEFILE OPTIONS:
    NEWTON-RAPHSON method enabled for the model.
    NEWTON-RAPHSON UNDER-RELAXATION based on the bottom elevation of the model will be applied to the model.

 DIS -- STRUCTURED GRID DISCRETIZATION PACKAGE, VERSION 2 : 3/27/2014 - INPUT READ FROM UNIT 1006


 # File generated by Flopy version 3.3.5 on 06/19/2023 at 17:35:19.
 PROCESSING DISCRETIZATION OPTIONS
    BINARY GRB FILE WILL NOT BE WRITTEN
 END OF DISCRETIZATION OPTIONS
 MODEL LENGTH UNIT IS UNDEFINED
 PROCESSING DISCRETIZATION DIMENSIONS
    NLAY =       1
    NROW =     593
    NCOL =     658
 END OF DISCRETIZATION DIMENSIONS
 PROCESSING GRIDDATA

                     DELR =   500.0000    

                     DELC =   500.0000    
 END PROCESSING GRIDDATA

 THE SPECIFIED IDOMAIN RESULTS IN A REDUCED NUMBER OF CELLS.
 NUMBER OF USER NODES: 390194
 NUMBER OF NODES IN SOLUTION: 187611



 NPF -- NODE PROPERTY FLOW PACKAGE, VERSION 1, 3/30/2015 INPUT READ FROM UNIT 1008


 # File generated by Flopy version 3.3.5 on 06/19/2023 at 17:35:25.
 PROCESSING NPF OPTIONS
    CELL-BY-CELL FLOW INFORMATION WILL BE SAVED TO BINARY FILE WHENEVER ICBCFL IS NOT ZERO.
 END OF NPF OPTIONS

 WEL   -- WEL PACKAGE, VERSION 8, 2/22/2014 INPUT READ FROM UNIT 1012
 # File generated by Flopy version 3.3.5 on 06/19/2023 at 17:35:30.

 PROCESSING WEL OPTIONS
    AUTOMATIC FLOW REDUCTION OF WELLS IMPLEMENTED.
    AUTOMATIC FLOW REDUCTION FRACTION (  0.1000000    ).
 END OF WEL OPTIONS

 PROCESSING WEL DIMENSIONS
    MAXBOUND =  187611
 END OF WEL DIMENSIONS

 DRN   -- DRN PACKAGE, VERSION 8, 2/22/2014 INPUT READ FROM UNIT 1013
 # File generated by Flopy version 3.3.5 on 06/19/2023 at 17:35:32.

 PROCESSING DRN OPTIONS
 END OF DRN OPTIONS

 PROCESSING DRN DIMENSIONS
    MAXBOUND =  187611
 END OF DRN DIMENSIONS

 RCH   -- RCH PACKAGE, VERSION 8, 2/22/2014 INPUT READ FROM UNIT 1011
 # File generated by Flopy version 3.3.5 on 06/19/2023 at 17:35:28.

 PROCESSING RCH OPTIONS
 END OF RCH OPTIONS

 PROCESSING RCH DIMENSIONS
    MAXBOUND =  187611
 END OF RCH DIMENSIONS

 IC -- INITIAL CONDITIONS PACKAGE, VERSION 8, 3/28/2015 INPUT READ FROM UNIT 1007
 # File generated by Flopy version 3.3.5 on 06/19/2023 at 17:35:23.
 PROCESSING GRIDDATA
 END PROCESSING GRIDDATA
 PROCESSING GRIDDATA

                ICELLTYPE = 1
 K33 not provided.  Assuming K33 = K.
 K22 not provided.  Assuming K22 = K.
 END PROCESSING GRIDDATA

 STO -- STORAGE PACKAGE, VERSION 1, 5/19/2014 INPUT READ FROM UNIT 1010


 # File generated by Flopy version 3.3.5 on 06/19/2023 at 17:35:26.
 PROCESSING STORAGE OPTIONS
 END OF STORAGE OPTIONS
 PROCESSING GRIDDATA

                 ICONVERT = 1

         SPECIFIC STORAGE =   0.000000    
 END PROCESSING GRIDDATA
      THE LAST TIME STEP WILL BE PRINTED
      THE LAST TIME STEP WILL BE PRINTED
 # File generated by Flopy version 3.3.5 on 06/19/2023 at 17:35:26.

 PROCESSING OC OPTIONS

    HEAD INFORMATION WILL BE WRITTEN TO:
      UNIT NUMBER: 1015
      FILE NAME: TRANSIENT.hds

 OPENED TRANSIENT.hds
 FILE TYPE:DATA(BINARY)   UNIT 1015   STATUS:REPLACE             
 FORMAT:UNFORMATTED            ACCESS:STREAM              
 ACTION:READWRITE           

 END OF OC OPTIONS

start timestep kper="1" kstp="1" mode="normal"


 BEGIN READING OUTPUT CONTROL FOR STRESS PERIOD 1
      THE FOLLOWING FREQUENCY WILL BE SAVED: 10

 END READING OUTPUT CONTROL FOR STRESS PERIOD 1


 PROCESSING STORAGE PERIOD DATA
 END PROCESSING STORAGE PERIOD DATA


 STRESS PERIOD 1 IS TRANSIENT



  VOLUME BUDGET FOR ENTIRE MODEL AT END OF TIME STEP    1, STRESS PERIOD   1
  ---------------------------------------------------------------------------------------------------

     CUMULATIVE VOLUME      L**3       RATES FOR THIS TIME STEP      L**3/T          PACKAGE NAME    
     ------------------                 ------------------------                     ----------------

           IN:                                      IN:
           ---                                      ---
              STO-SS =           0.0000                STO-SS =           0.0000     STORAGE         
              STO-SY =    81600315.7417                STO-SY =    81600315.7417     STORAGE         
                 WEL =           0.0000                   WEL =           0.0000     WEL_0           
                 DRN =           0.0000                   DRN =           0.0000     DRN_0           
                 RCH =    40042609.8812                   RCH =    40042609.8812     RCH_0           

            TOTAL IN =   121642925.6230              TOTAL IN =   121642925.6230

          OUT:                                     OUT:
          ----                                     ----
              STO-SS =           0.0000                STO-SS =           0.0000     STORAGE         
              STO-SY =     9550012.6893                STO-SY =     9550012.6893     STORAGE         
                 WEL =    77708148.0124                   WEL =    77708148.0124     WEL_0           
                 DRN =    34384764.9360                   DRN =    34384764.9360     DRN_0           
                 RCH =           0.0000                   RCH =           0.0000     RCH_0           

           TOTAL OUT =   121642925.6377             TOTAL OUT =   121642925.6377

            IN - OUT =      -1.4708E-02              IN - OUT =      -1.4708E-02

 PERCENT DISCREPANCY =          -0.00     PERCENT DISCREPANCY =          -0.00




         TIME SUMMARY AT END OF TIME STEP    1 IN STRESS PERIOD    1
                          TIME STEP LENGTH =    1.00000    
                        STRESS PERIOD TIME =    1.00000    
                     TOTAL SIMULATION TIME =    1.00000    

end timestep


start timestep kper="2" kstp="1" mode="normal"


 END OF FILE DETECTED IN OUTPUT CONTROL.
 CURRENT OUTPUT CONTROL SETTINGS WILL BE 
 REPEATED UNTIL THE END OF THE SIMULATION.

 OUTPUT CONTROL FOR STRESS PERIOD 2 IS REPEATED USING SETTINGS FROM A PREVIOUS STRESS PERIOD.


 STRESS PERIOD 2 IS TRANSIENT


 REUSING WELS FROM LAST STRESS PERIOD

 REUSING DRNS FROM LAST STRESS PERIOD

 REUSING RCHS FROM LAST STRESS PERIOD


  VOLUME BUDGET FOR ENTIRE MODEL AT END OF TIME STEP    1, STRESS PERIOD   2
  ---------------------------------------------------------------------------------------------------

     CUMULATIVE VOLUME      L**3       RATES FOR THIS TIME STEP      L**3/T          PACKAGE NAME    
     ------------------                 ------------------------                     ----------------

           IN:                                      IN:
           ---                                      ---
              STO-SS =           0.0000                STO-SS =           0.0000     STORAGE         
              STO-SY =   114423310.1118                STO-SY =    32822994.3701     STORAGE         
                 WEL =           0.0000                   WEL =           0.0000     WEL_0           
                 DRN =           0.0000                   DRN =           0.0000     DRN_0           
                 RCH =   175499716.0049                   RCH =   135457106.1236     RCH_0           

            TOTAL IN =   289923026.1167              TOTAL IN =   168280100.4937

          OUT:                                     OUT:
          ----                                     ----
              STO-SS =           0.0000                STO-SS =           0.0000     STORAGE         
              STO-SY =    62538052.7120                STO-SY =    52988040.0227     STORAGE         
                 WEL =   125900556.7447                   WEL =    48192408.7323     WEL_0           
                 DRN =   101484416.6655                   DRN =    67099651.7296     DRN_0           
                 RCH =           0.0000                   RCH =           0.0000     RCH_0           

           TOTAL OUT =   289923026.1223             TOTAL OUT =   168280100.4846

            IN - OUT =      -5.5729E-03              IN - OUT =       9.1349E-03

 PERCENT DISCREPANCY =          -0.00     PERCENT DISCREPANCY =           0.00




         TIME SUMMARY AT END OF TIME STEP    1 IN STRESS PERIOD    2
                          TIME STEP LENGTH =    1.00000    
                        STRESS PERIOD TIME =    1.00000    
                     TOTAL SIMULATION TIME =    2.00000    

end timestep


start timestep kper="3" kstp="1" mode="normal"


 OUTPUT CONTROL FOR STRESS PERIOD 3 IS REPEATED USING SETTINGS FROM A PREVIOUS STRESS PERIOD.


 STRESS PERIOD 3 IS TRANSIENT


 REUSING WELS FROM LAST STRESS PERIOD

 REUSING DRNS FROM LAST STRESS PERIOD

 REUSING RCHS FROM LAST STRESS PERIOD


  VOLUME BUDGET FOR ENTIRE MODEL AT END OF TIME STEP    1, STRESS PERIOD   3
  ---------------------------------------------------------------------------------------------------

     CUMULATIVE VOLUME      L**3       RATES FOR THIS TIME STEP      L**3/T          PACKAGE NAME    
     ------------------                 ------------------------                     ----------------

           IN:                                      IN:
           ---                                      ---
              STO-SS =           0.0000                STO-SS =           0.0000     STORAGE         
              STO-SY =   121553196.7296                STO-SY =     7129886.6178     STORAGE         
                 WEL =           0.0000                   WEL =           0.0000     WEL_0           
                 DRN =           0.0000                   DRN =           0.0000     DRN_0           
                 RCH =   295527932.1602                   RCH =   120028216.1553     RCH_0           

            TOTAL IN =   417081128.8898              TOTAL IN =   127158102.7731

          OUT:                                     OUT:
          ----                                     ----
              STO-SS =           0.0000                STO-SS =           0.0000     STORAGE         
              STO-SY =   133089537.6625                STO-SY =    70551484.9505     STORAGE         
                 WEL =   130339148.8688                   WEL =     4438592.1241     WEL_0           
                 DRN =   153652442.2011                   DRN =    52168025.5356     DRN_0           
                 RCH =           0.0000                   RCH =           0.0000     RCH_0           

           TOTAL OUT =   417081128.7324             TOTAL OUT =   127158102.6101

            IN - OUT =           0.1574              IN - OUT =           0.1630

 PERCENT DISCREPANCY =           0.00     PERCENT DISCREPANCY =           0.00




         TIME SUMMARY AT END OF TIME STEP    1 IN STRESS PERIOD    3
                          TIME STEP LENGTH =    1.00000    
                        STRESS PERIOD TIME =    1.00000    
                     TOTAL SIMULATION TIME =    3.00000    

end timestep


start timestep kper="4" kstp="1" mode="normal"


 OUTPUT CONTROL FOR STRESS PERIOD 4 IS REPEATED USING SETTINGS FROM A PREVIOUS STRESS PERIOD.


 STRESS PERIOD 4 IS TRANSIENT


 REUSING WELS FROM LAST STRESS PERIOD

 REUSING DRNS FROM LAST STRESS PERIOD

 REUSING RCHS FROM LAST STRESS PERIOD


  VOLUME BUDGET FOR ENTIRE MODEL AT END OF TIME STEP    1, STRESS PERIOD   4
  ---------------------------------------------------------------------------------------------------

     CUMULATIVE VOLUME      L**3       RATES FOR THIS TIME STEP      L**3/T          PACKAGE NAME    
     ------------------                 ------------------------                     ----------------

           IN:                                      IN:
           ---                                      ---
              STO-SS =           0.0000                STO-SS =           0.0000     STORAGE         
              STO-SY =   134809107.6216                STO-SY =    13255910.8920     STORAGE         
                 WEL =           0.0000                   WEL =           0.0000     WEL_0           
                 DRN =           0.0000                   DRN =           0.0000     DRN_0           
                 RCH =   366606161.7623                   RCH =    71078229.6021     RCH_0           

            TOTAL IN =   501415269.3838              TOTAL IN =    84334140.4941

          OUT:                                     OUT:
          ----                                     ----
              STO-SS =           0.0000                STO-SS =           0.0000     STORAGE         
              STO-SY =   158873611.8438                STO-SY =    25784074.1813     STORAGE         
                 WEL =   139530250.3143                   WEL =     9191101.4456     WEL_0           
                 DRN =   203011371.6762                   DRN =    49358929.4750     DRN_0           
                 RCH =           0.0000                   RCH =           0.0000     RCH_0           

           TOTAL OUT =   501415233.8342             TOTAL OUT =    84334105.1019

            IN - OUT =          35.5496              IN - OUT =          35.3922

 PERCENT DISCREPANCY =           0.00     PERCENT DISCREPANCY =           0.00




         TIME SUMMARY AT END OF TIME STEP    1 IN STRESS PERIOD    4
                          TIME STEP LENGTH =    1.00000    
                        STRESS PERIOD TIME =    1.00000    
                     TOTAL SIMULATION TIME =    4.00000    

end timestep


start timestep kper="5" kstp="1" mode="normal"


 OUTPUT CONTROL FOR STRESS PERIOD 5 IS REPEATED USING SETTINGS FROM A PREVIOUS STRESS PERIOD.


 STRESS PERIOD 5 IS TRANSIENT


 REUSING WELS FROM LAST STRESS PERIOD

 REUSING DRNS FROM LAST STRESS PERIOD

 REUSING RCHS FROM LAST STRESS PERIOD


  VOLUME BUDGET FOR ENTIRE MODEL AT END OF TIME STEP    1, STRESS PERIOD   5
  ---------------------------------------------------------------------------------------------------

     CUMULATIVE VOLUME      L**3       RATES FOR THIS TIME STEP      L**3/T          PACKAGE NAME    
     ------------------                 ------------------------                     ----------------

           IN:                                      IN:
           ---                                      ---
              STO-SS =           0.0000                STO-SS =           0.0000     STORAGE         
              STO-SY =   155692517.0759                STO-SY =    20883409.4544     STORAGE         
                 WEL =           0.0000                   WEL =           0.0000     WEL_0           
                 DRN =           0.0000                   DRN =           0.0000     DRN_0           
                 RCH =   412838378.0413                   RCH =    46232216.2790     RCH_0           

            TOTAL IN =   568530895.1172              TOTAL IN =    67115625.7334

          OUT:                                     OUT:
          ----                                     ----
              STO-SS =           0.0000                STO-SS =           0.0000     STORAGE         
              STO-SY =   175027802.4850                STO-SY =    16154190.6412     STORAGE         
                 WEL =   148018647.6720                   WEL =     8488397.3577     WEL_0           
                 DRN =   245484397.6111                   DRN =    42473025.9349     DRN_0           
                 RCH =           0.0000                   RCH =           0.0000     RCH_0           

           TOTAL OUT =   568530847.7681             TOTAL OUT =    67115613.9338

            IN - OUT =          47.3491              IN - OUT =          11.7995

 PERCENT DISCREPANCY =           0.00     PERCENT DISCREPANCY =           0.00




         TIME SUMMARY AT END OF TIME STEP    1 IN STRESS PERIOD    5
                          TIME STEP LENGTH =    1.00000    
                        STRESS PERIOD TIME =    1.00000    
                     TOTAL SIMULATION TIME =    5.00000    

end timestep


start timestep kper="6" kstp="1" mode="normal"


 OUTPUT CONTROL FOR STRESS PERIOD 6 IS REPEATED USING SETTINGS FROM A PREVIOUS STRESS PERIOD.


 STRESS PERIOD 6 IS TRANSIENT


 REUSING WELS FROM LAST STRESS PERIOD

 REUSING DRNS FROM LAST STRESS PERIOD

 REUSING RCHS FROM LAST STRESS PERIOD


  VOLUME BUDGET FOR ENTIRE MODEL AT END OF TIME STEP    1, STRESS PERIOD   6
  ---------------------------------------------------------------------------------------------------

     CUMULATIVE VOLUME      L**3       RATES FOR THIS TIME STEP      L**3/T          PACKAGE NAME    
     ------------------                 ------------------------                     ----------------

           IN:                                      IN:
           ---                                      ---
              STO-SS =           0.0000                STO-SS =           0.0000     STORAGE         
              STO-SY =   184448827.1006                STO-SY =    28756310.0246     STORAGE         
                 WEL =           0.0000                   WEL =           0.0000     WEL_0           
                 DRN =           0.0000                   DRN =           0.0000     DRN_0           
                 RCH =   435860218.2002                   RCH =    23021840.1590     RCH_0           

            TOTAL IN =   620309045.3008              TOTAL IN =    51778150.1836

          OUT:                                     OUT:
          ----                                     ----
              STO-SS =           0.0000                STO-SS =           0.0000     STORAGE         
              STO-SY =   180046038.8856                STO-SY =     5018236.4007     STORAGE         
                 WEL =   153414970.9221                   WEL =     5396323.2500     WEL_0           
                 DRN =   286847987.4181                   DRN =    41363589.8070     DRN_0           
                 RCH =           0.0000                   RCH =           0.0000     RCH_0           

           TOTAL OUT =   620308997.2258             TOTAL OUT =    51778149.4577

            IN - OUT =          48.0750              IN - OUT =           0.7259

 PERCENT DISCREPANCY =           0.00     PERCENT DISCREPANCY =           0.00




         TIME SUMMARY AT END OF TIME STEP    1 IN STRESS PERIOD    6
                          TIME STEP LENGTH =    1.00000    
                        STRESS PERIOD TIME =    1.00000    
                     TOTAL SIMULATION TIME =    6.00000    

end timestep


start timestep kper="7" kstp="1" mode="normal"


 OUTPUT CONTROL FOR STRESS PERIOD 7 IS REPEATED USING SETTINGS FROM A PREVIOUS STRESS PERIOD.


 STRESS PERIOD 7 IS TRANSIENT


 REUSING WELS FROM LAST STRESS PERIOD

 REUSING DRNS FROM LAST STRESS PERIOD

 REUSING RCHS FROM LAST STRESS PERIOD


  VOLUME BUDGET FOR ENTIRE MODEL AT END OF TIME STEP    1, STRESS PERIOD   7
  ---------------------------------------------------------------------------------------------------

     CUMULATIVE VOLUME      L**3       RATES FOR THIS TIME STEP      L**3/T          PACKAGE NAME    
     ------------------                 ------------------------                     ----------------

           IN:                                      IN:
           ---                                      ---
              STO-SS =           0.0000                STO-SS =           0.0000     STORAGE         
              STO-SY =   218149801.8545                STO-SY =    33700974.7539     STORAGE         
                 WEL =           0.0000                   WEL =           0.0000     WEL_0           
                 DRN =           0.0000                   DRN =           0.0000     DRN_0           
                 RCH =   449255829.1947                   RCH =    13395610.9945     RCH_0           

            TOTAL IN =   667405631.0492              TOTAL IN =    47096585.7484

          OUT:                                     OUT:
          ----                                     ----
              STO-SS =           0.0000                STO-SS =           0.0000     STORAGE         
              STO-SY =   182727269.5491                STO-SY =     2681230.6635     STORAGE         
                 WEL =   160029602.9328                   WEL =     6614632.0107     WEL_0           
                 DRN =   324648709.7577                   DRN =    37800722.3396     DRN_0           
                 RCH =           0.0000                   RCH =           0.0000     RCH_0           

           TOTAL OUT =   667405582.2396             TOTAL OUT =    47096585.0138

            IN - OUT =          48.8096              IN - OUT =           0.7346

 PERCENT DISCREPANCY =           0.00     PERCENT DISCREPANCY =           0.00




         TIME SUMMARY AT END OF TIME STEP    1 IN STRESS PERIOD    7
                          TIME STEP LENGTH =    1.00000    
                        STRESS PERIOD TIME =    1.00000    
                     TOTAL SIMULATION TIME =    7.00000    

end timestep


start timestep kper="8" kstp="1" mode="normal"


 OUTPUT CONTROL FOR STRESS PERIOD 8 IS REPEATED USING SETTINGS FROM A PREVIOUS STRESS PERIOD.


 STRESS PERIOD 8 IS TRANSIENT


 REUSING WELS FROM LAST STRESS PERIOD

 REUSING DRNS FROM LAST STRESS PERIOD

 REUSING RCHS FROM LAST STRESS PERIOD


  VOLUME BUDGET FOR ENTIRE MODEL AT END OF TIME STEP    1, STRESS PERIOD   8
  ---------------------------------------------------------------------------------------------------

     CUMULATIVE VOLUME      L**3       RATES FOR THIS TIME STEP      L**3/T          PACKAGE NAME    
     ------------------                 ------------------------                     ----------------

           IN:                                      IN:
           ---                                      ---
              STO-SS =           0.0000                STO-SS =           0.0000     STORAGE         
              STO-SY =   247963763.8142                STO-SY =    29813961.9597     STORAGE         
                 WEL =           0.0000                   WEL =           0.0000     WEL_0           
                 DRN =           0.0000                   DRN =           0.0000     DRN_0           
                 RCH =   477533228.1575                   RCH =    28277398.9628     RCH_0           

            TOTAL IN =   725496991.9717              TOTAL IN =    58091360.9225

          OUT:                                     OUT:
          ----                                     ----
              STO-SS =           0.0000                STO-SS =           0.0000     STORAGE         
              STO-SY =   189362872.5209                STO-SY =     6635602.9718     STORAGE         
                 WEL =   170714134.6538                   WEL =    10684531.7210     WEL_0           
                 DRN =   365419935.9656                   DRN =    40771226.2079     DRN_0           
                 RCH =           0.0000                   RCH =           0.0000     RCH_0           

           TOTAL OUT =   725496943.1403             TOTAL OUT =    58091360.9007

            IN - OUT =          48.8314              IN - OUT =       2.1772E-02

 PERCENT DISCREPANCY =           0.00     PERCENT DISCREPANCY =           0.00




         TIME SUMMARY AT END OF TIME STEP    1 IN STRESS PERIOD    8
                          TIME STEP LENGTH =    1.00000    
                        STRESS PERIOD TIME =    1.00000    
                     TOTAL SIMULATION TIME =    8.00000    

end timestep


start timestep kper="9" kstp="1" mode="normal"


 OUTPUT CONTROL FOR STRESS PERIOD 9 IS REPEATED USING SETTINGS FROM A PREVIOUS STRESS PERIOD.


 STRESS PERIOD 9 IS TRANSIENT


 REUSING WELS FROM LAST STRESS PERIOD

 REUSING DRNS FROM LAST STRESS PERIOD

 REUSING RCHS FROM LAST STRESS PERIOD


  VOLUME BUDGET FOR ENTIRE MODEL AT END OF TIME STEP    1, STRESS PERIOD   9
  ---------------------------------------------------------------------------------------------------

     CUMULATIVE VOLUME      L**3       RATES FOR THIS TIME STEP      L**3/T          PACKAGE NAME    
     ------------------                 ------------------------                     ----------------

           IN:                                      IN:
           ---                                      ---
              STO-SS =           0.0000                STO-SS =           0.0000     STORAGE         
              STO-SY =   257129157.3429                STO-SY =     9165393.5287     STORAGE         
                 WEL =           0.0000                   WEL =           0.0000     WEL_0           
                 DRN =           0.0000                   DRN =           0.0000     DRN_0           
                 RCH =   615702685.7433                   RCH =   138169457.5858     RCH_0           

            TOTAL IN =   872831843.0862              TOTAL IN =   147334851.1145

          OUT:                                     OUT:
          ----                                     ----
              STO-SS =           0.0000                STO-SS =           0.0000     STORAGE         
              STO-SY =   266973738.0727                STO-SY =    77610865.5518     STORAGE         
                 WEL =   172634768.9287                   WEL =     1920634.2749     WEL_0           
                 DRN =   433223292.5904                   DRN =    67803356.6248     DRN_0           
                 RCH =           0.0000                   RCH =           0.0000     RCH_0           

           TOTAL OUT =   872831799.5918             TOTAL OUT =   147334856.4515

            IN - OUT =          43.4944              IN - OUT =          -5.3370

 PERCENT DISCREPANCY =           0.00     PERCENT DISCREPANCY =          -0.00




         TIME SUMMARY AT END OF TIME STEP    1 IN STRESS PERIOD    9
                          TIME STEP LENGTH =    1.00000    
                        STRESS PERIOD TIME =    1.00000    
                     TOTAL SIMULATION TIME =    9.00000    

end timestep


start timestep kper="10" kstp="1" mode="normal"


 OUTPUT CONTROL FOR STRESS PERIOD 10 IS REPEATED USING SETTINGS FROM A PREVIOUS STRESS PERIOD.


 STRESS PERIOD 10 IS TRANSIENT


 REUSING WELS FROM LAST STRESS PERIOD

 REUSING DRNS FROM LAST STRESS PERIOD

 REUSING RCHS FROM LAST STRESS PERIOD


  VOLUME BUDGET FOR ENTIRE MODEL AT END OF TIME STEP    1, STRESS PERIOD  10
  ---------------------------------------------------------------------------------------------------

     CUMULATIVE VOLUME      L**3       RATES FOR THIS TIME STEP      L**3/T          PACKAGE NAME    
     ------------------                 ------------------------                     ----------------

           IN:                                      IN:
           ---                                      ---
              STO-SS =           0.0000                STO-SS =           0.0000     STORAGE         
              STO-SY =   268065905.8052                STO-SY =    10936748.4623     STORAGE         
                 WEL =           0.0000                   WEL =           0.0000     WEL_0           
                 DRN =           0.0000                   DRN =           0.0000     DRN_0           
                 RCH =   725713016.4639                   RCH =   110010330.7206     RCH_0           

            TOTAL IN =   993778922.2691              TOTAL IN =   120947079.1829

          OUT:                                     OUT:
          ----                                     ----
              STO-SS =           0.0000                STO-SS =           0.0000     STORAGE         
              STO-SY =   324077327.7443                STO-SY =    57103589.6716     STORAGE         
                 WEL =   174589510.6965                   WEL =     1954741.7678     WEL_0           
                 DRN =   495112037.1592                   DRN =    61888744.5688     DRN_0           
                 RCH =           0.0000                   RCH =           0.0000     RCH_0           

           TOTAL OUT =   993778875.6000             TOTAL OUT =   120947076.0082

            IN - OUT =          46.6691              IN - OUT =           3.1747

 PERCENT DISCREPANCY =           0.00     PERCENT DISCREPANCY =           0.00




         TIME SUMMARY AT END OF TIME STEP    1 IN STRESS PERIOD   10
                          TIME STEP LENGTH =    1.00000    
                        STRESS PERIOD TIME =    1.00000    
                     TOTAL SIMULATION TIME =    10.0000    

end timestep


start timestep kper="11" kstp="1" mode="normal"


 OUTPUT CONTROL FOR STRESS PERIOD 11 IS REPEATED USING SETTINGS FROM A PREVIOUS STRESS PERIOD.


 STRESS PERIOD 11 IS TRANSIENT


 REUSING WELS FROM LAST STRESS PERIOD

 REUSING DRNS FROM LAST STRESS PERIOD

 REUSING RCHS FROM LAST STRESS PERIOD


  VOLUME BUDGET FOR ENTIRE MODEL AT END OF TIME STEP    1, STRESS PERIOD  11
  ---------------------------------------------------------------------------------------------------

     CUMULATIVE VOLUME      L**3       RATES FOR THIS TIME STEP      L**3/T          PACKAGE NAME    
     ------------------                 ------------------------                     ----------------

           IN:                                      IN:
           ---                                      ---
              STO-SS =           0.0000                STO-SS =           0.0000     STORAGE         
              STO-SY =   285778461.7175                STO-SY =    17712555.9123     STORAGE         
                 WEL =           0.0000                   WEL =           0.0000     WEL_0           
                 DRN =           0.0000                   DRN =           0.0000     DRN_0           
                 RCH =   823129532.1932                   RCH =    97416515.7293     RCH_0           

            TOTAL IN =  1108907993.9106              TOTAL IN =   115129071.6415

          OUT:                                     OUT:
          ----                                     ----
              STO-SS =           0.0000                STO-SS =           0.0000     STORAGE         
              STO-SY =   366512066.5754                STO-SY =    42434738.8311     STORAGE         
                 WEL =   176633940.4830                   WEL =     2044429.7865     WEL_0           
                 DRN =   565761940.8813                   DRN =    70649903.7221     DRN_0           
                 RCH =           0.0000                   RCH =           0.0000     RCH_0           

           TOTAL OUT =  1108907947.9397             TOTAL OUT =   115129072.3397

            IN - OUT =          45.9710              IN - OUT =          -0.6981

 PERCENT DISCREPANCY =           0.00     PERCENT DISCREPANCY =          -0.00




         TIME SUMMARY AT END OF TIME STEP    1 IN STRESS PERIOD   11
                          TIME STEP LENGTH =    1.00000    
                        STRESS PERIOD TIME =    1.00000    
                     TOTAL SIMULATION TIME =    11.0000    

end timestep


start timestep kper="12" kstp="1" mode="normal"


 OUTPUT CONTROL FOR STRESS PERIOD 12 IS REPEATED USING SETTINGS FROM A PREVIOUS STRESS PERIOD.


 STRESS PERIOD 12 IS TRANSIENT


 REUSING WELS FROM LAST STRESS PERIOD

 REUSING DRNS FROM LAST STRESS PERIOD

 REUSING RCHS FROM LAST STRESS PERIOD


  VOLUME BUDGET FOR ENTIRE MODEL AT END OF TIME STEP    1, STRESS PERIOD  12
  ---------------------------------------------------------------------------------------------------

     CUMULATIVE VOLUME      L**3       RATES FOR THIS TIME STEP      L**3/T          PACKAGE NAME    
     ------------------                 ------------------------                     ----------------

           IN:                                      IN:
           ---                                      ---
              STO-SS =           0.0000                STO-SS =           0.0000     STORAGE         
              STO-SY =   325411557.2570                STO-SY =    39633095.5396     STORAGE         
                 WEL =           0.0000                   WEL =           0.0000     WEL_0           
                 DRN =           0.0000                   DRN =           0.0000     DRN_0           
                 RCH =   853416459.4961                   RCH =    30286927.3029     RCH_0           

            TOTAL IN =  1178828016.7532              TOTAL IN =    69920022.8425

          OUT:                                     OUT:
          ----                                     ----
              STO-SS =           0.0000                STO-SS =           0.0000     STORAGE         
              STO-SY =   371908148.2517                STO-SY =     5396081.6762     STORAGE         
                 WEL =   194499138.5545                   WEL =    17865198.0715     WEL_0           
                 DRN =   612420695.1048                   DRN =    46658754.2235     DRN_0           
                 RCH =           0.0000                   RCH =           0.0000     RCH_0           

           TOTAL OUT =  1178827981.9109             TOTAL OUT =    69920033.9712

            IN - OUT =          34.8422              IN - OUT =         -11.1287

 PERCENT DISCREPANCY =           0.00     PERCENT DISCREPANCY =          -0.00




         TIME SUMMARY AT END OF TIME STEP    1 IN STRESS PERIOD   12
                          TIME STEP LENGTH =    1.00000    
                        STRESS PERIOD TIME =    1.00000    
                     TOTAL SIMULATION TIME =    12.0000    

end timestep


start timestep kper="13" kstp="1" mode="normal"


 OUTPUT CONTROL FOR STRESS PERIOD 13 IS REPEATED USING SETTINGS FROM A PREVIOUS STRESS PERIOD.


 STRESS PERIOD 13 IS TRANSIENT


 REUSING WELS FROM LAST STRESS PERIOD

 REUSING DRNS FROM LAST STRESS PERIOD

 REUSING RCHS FROM LAST STRESS PERIOD


  VOLUME BUDGET FOR ENTIRE MODEL AT END OF TIME STEP    1, STRESS PERIOD  13
  ---------------------------------------------------------------------------------------------------

     CUMULATIVE VOLUME      L**3       RATES FOR THIS TIME STEP      L**3/T          PACKAGE NAME    
     ------------------                 ------------------------                     ----------------

           IN:                                      IN:
           ---                                      ---
              STO-SS =           0.0000                STO-SS =           0.0000     STORAGE         
              STO-SY =   355910433.0421                STO-SY =    30498875.7851     STORAGE         
                 WEL =           0.0000                   WEL =           0.0000     WEL_0           
                 DRN =           0.0000                   DRN =           0.0000     DRN_0           
                 RCH =   876518404.1933                   RCH =    23101944.6972     RCH_0           

            TOTAL IN =  1232428837.2355              TOTAL IN =    53600820.4823

          OUT:                                     OUT:
          ----                                     ----
              STO-SS =           0.0000                STO-SS =           0.0000     STORAGE         
              STO-SY =   375740233.1714                STO-SY =     3832084.9197     STORAGE         
                 WEL =   201646264.9438                   WEL =     7147126.3893     WEL_0           
                 DRN =   655042303.6045                   DRN =    42621608.4998     DRN_0           
                 RCH =           0.0000                   RCH =           0.0000     RCH_0           

           TOTAL OUT =  1232428801.7197             TOTAL OUT =    53600819.8088

            IN - OUT =          35.5157              IN - OUT =           0.6735

 PERCENT DISCREPANCY =           0.00     PERCENT DISCREPANCY =           0.00




         TIME SUMMARY AT END OF TIME STEP    1 IN STRESS PERIOD   13
                          TIME STEP LENGTH =    1.00000    
                        STRESS PERIOD TIME =    1.00000    
                     TOTAL SIMULATION TIME =    13.0000    

end timestep


start timestep kper="14" kstp="1" mode="normal"


 OUTPUT CONTROL FOR STRESS PERIOD 14 IS REPEATED USING SETTINGS FROM A PREVIOUS STRESS PERIOD.


 STRESS PERIOD 14 IS TRANSIENT


 REUSING WELS FROM LAST STRESS PERIOD

 REUSING DRNS FROM LAST STRESS PERIOD

 REUSING RCHS FROM LAST STRESS PERIOD


  VOLUME BUDGET FOR ENTIRE MODEL AT END OF TIME STEP    1, STRESS PERIOD  14
  ---------------------------------------------------------------------------------------------------

     CUMULATIVE VOLUME      L**3       RATES FOR THIS TIME STEP      L**3/T          PACKAGE NAME    
     ------------------                 ------------------------                     ----------------

           IN:                                      IN:
           ---                                      ---
              STO-SS =           0.0000                STO-SS =           0.0000     STORAGE         
              STO-SY =   395371806.6546                STO-SY =    39461373.6125     STORAGE         
                 WEL =           0.0000                   WEL =           0.0000     WEL_0           
                 DRN =           0.0000                   DRN =           0.0000     DRN_0           
                 RCH =   922258073.9053                   RCH =    45739669.7119     RCH_0           

            TOTAL IN =  1317629880.5598              TOTAL IN =    85201043.3244

          OUT:                                     OUT:
          ----                                     ----
              STO-SS =           0.0000                STO-SS =           0.0000     STORAGE         
              STO-SY =   382517308.1795                STO-SY =     6777075.0082     STORAGE         
                 WEL =   232468748.3417                   WEL =    30822483.3979     WEL_0           
                 DRN =   702643788.4533                   DRN =    47601484.8488     DRN_0           
                 RCH =           0.0000                   RCH =           0.0000     RCH_0           

           TOTAL OUT =  1317629844.9746             TOTAL OUT =    85201043.2548

            IN - OUT =          35.5853              IN - OUT =       6.9545E-02

 PERCENT DISCREPANCY =           0.00     PERCENT DISCREPANCY =           0.00




         TIME SUMMARY AT END OF TIME STEP    1 IN STRESS PERIOD   14
                          TIME STEP LENGTH =    1.00000    
                        STRESS PERIOD TIME =    1.00000    
                     TOTAL SIMULATION TIME =    14.0000    

end timestep


start timestep kper="15" kstp="1" mode="normal"


 OUTPUT CONTROL FOR STRESS PERIOD 15 IS REPEATED USING SETTINGS FROM A PREVIOUS STRESS PERIOD.


 STRESS PERIOD 15 IS TRANSIENT


 REUSING WELS FROM LAST STRESS PERIOD

 REUSING DRNS FROM LAST STRESS PERIOD

 REUSING RCHS FROM LAST STRESS PERIOD


  VOLUME BUDGET FOR ENTIRE MODEL AT END OF TIME STEP    1, STRESS PERIOD  15
  ---------------------------------------------------------------------------------------------------

     CUMULATIVE VOLUME      L**3       RATES FOR THIS TIME STEP      L**3/T          PACKAGE NAME    
     ------------------                 ------------------------                     ----------------

           IN:                                      IN:
           ---                                      ---
              STO-SS =           0.0000                STO-SS =           0.0000     STORAGE         
              STO-SY =   421211174.2028                STO-SY =    25839367.5483     STORAGE         
                 WEL =           0.0000                   WEL =           0.0000     WEL_0           
                 DRN =           0.0000                   DRN =           0.0000     DRN_0           
                 RCH =   947392494.8194                   RCH =    25134420.9141     RCH_0           

            TOTAL IN =  1368603669.0222              TOTAL IN =    50973788.4624

          OUT:                                     OUT:
          ----                                     ----
              STO-SS =           0.0000                STO-SS =           0.0000     STORAGE         
              STO-SY =   386051769.6226                STO-SY =     3534461.4431     STORAGE         
                 WEL =   237844556.9031                   WEL =     5375808.5613     WEL_0           
                 DRN =   744707313.3611                   DRN =    42063524.9079     DRN_0           
                 RCH =           0.0000                   RCH =           0.0000     RCH_0           

           TOTAL OUT =  1368603639.8868             TOTAL OUT =    50973794.9122

            IN - OUT =          29.1354              IN - OUT =          -6.4499

 PERCENT DISCREPANCY =           0.00     PERCENT DISCREPANCY =          -0.00




         TIME SUMMARY AT END OF TIME STEP    1 IN STRESS PERIOD   15
                          TIME STEP LENGTH =    1.00000    
                        STRESS PERIOD TIME =    1.00000    
                     TOTAL SIMULATION TIME =    15.0000    

end timestep


start timestep kper="16" kstp="1" mode="normal"


 OUTPUT CONTROL FOR STRESS PERIOD 16 IS REPEATED USING SETTINGS FROM A PREVIOUS STRESS PERIOD.


 STRESS PERIOD 16 IS TRANSIENT


 REUSING WELS FROM LAST STRESS PERIOD

 REUSING DRNS FROM LAST STRESS PERIOD

 REUSING RCHS FROM LAST STRESS PERIOD


  VOLUME BUDGET FOR ENTIRE MODEL AT END OF TIME STEP    1, STRESS PERIOD  16
  ---------------------------------------------------------------------------------------------------

     CUMULATIVE VOLUME      L**3       RATES FOR THIS TIME STEP      L**3/T          PACKAGE NAME    
     ------------------                 ------------------------                     ----------------

           IN:                                      IN:
           ---                                      ---
              STO-SS =           0.0000                STO-SS =           0.0000     STORAGE         
              STO-SY =   439091938.7467                STO-SY =    17880764.5439     STORAGE         
                 WEL =           0.0000                   WEL =           0.0000     WEL_0           
                 DRN =           0.0000                   DRN =           0.0000     DRN_0           
                 RCH =   984482340.9415                   RCH =    37089846.1221     RCH_0           

            TOTAL IN =  1423574279.6882              TOTAL IN =    54970610.6660

          OUT:                                     OUT:
          ----                                     ----
              STO-SS =           0.0000                STO-SS =           0.0000     STORAGE         
              STO-SY =   392670675.9283                STO-SY =     6618906.3057     STORAGE         
                 WEL =   240021780.6349                   WEL =     2177223.7319     WEL_0           
                 DRN =   790881784.6618                   DRN =    46174471.3007     DRN_0           
                 RCH =           0.0000                   RCH =           0.0000     RCH_0           

           TOTAL OUT =  1423574241.2250             TOTAL OUT =    54970601.3382

            IN - OUT =          38.4632              IN - OUT =           9.3277

 PERCENT DISCREPANCY =           0.00     PERCENT DISCREPANCY =           0.00




         TIME SUMMARY AT END OF TIME STEP    1 IN STRESS PERIOD   16
                          TIME STEP LENGTH =    1.00000    
                        STRESS PERIOD TIME =    1.00000    
                     TOTAL SIMULATION TIME =    16.0000    

end timestep


start timestep kper="17" kstp="1" mode="normal"


 OUTPUT CONTROL FOR STRESS PERIOD 17 IS REPEATED USING SETTINGS FROM A PREVIOUS STRESS PERIOD.


 STRESS PERIOD 17 IS TRANSIENT


 REUSING WELS FROM LAST STRESS PERIOD

 REUSING DRNS FROM LAST STRESS PERIOD

 REUSING RCHS FROM LAST STRESS PERIOD


  VOLUME BUDGET FOR ENTIRE MODEL AT END OF TIME STEP    1, STRESS PERIOD  17
  ---------------------------------------------------------------------------------------------------

     CUMULATIVE VOLUME      L**3       RATES FOR THIS TIME STEP      L**3/T          PACKAGE NAME    
     ------------------                 ------------------------                     ----------------

           IN:                                      IN:
           ---                                      ---
              STO-SS =           0.0000                STO-SS =           0.0000     STORAGE         
              STO-SY =   467059732.6340                STO-SY =    27967793.8873     STORAGE         
                 WEL =           0.0000                   WEL =           0.0000     WEL_0           
                 DRN =           0.0000                   DRN =           0.0000     DRN_0           
                 RCH =  1015409589.3326                   RCH =    30927248.3911     RCH_0           

            TOTAL IN =  1482469321.9666              TOTAL IN =    58895042.2784

          OUT:                                     OUT:
          ----                                     ----
              STO-SS =           0.0000                STO-SS =           0.0000     STORAGE         
              STO-SY =   397693708.5769                STO-SY =     5023032.6486     STORAGE         
                 WEL =   252595189.3146                   WEL =    12573408.6796     WEL_0           
                 DRN =   832180386.2132                   DRN =    41298601.5513     DRN_0           
                 RCH =           0.0000                   RCH =           0.0000     RCH_0           

           TOTAL OUT =  1482469284.1046             TOTAL OUT =    58895042.8796

            IN - OUT =          37.8619              IN - OUT =          -0.6012

 PERCENT DISCREPANCY =           0.00     PERCENT DISCREPANCY =          -0.00




         TIME SUMMARY AT END OF TIME STEP    1 IN STRESS PERIOD   17
                          TIME STEP LENGTH =    1.00000    
                        STRESS PERIOD TIME =    1.00000    
                     TOTAL SIMULATION TIME =    17.0000    

end timestep


start timestep kper="18" kstp="1" mode="normal"


 OUTPUT CONTROL FOR STRESS PERIOD 18 IS REPEATED USING SETTINGS FROM A PREVIOUS STRESS PERIOD.


 STRESS PERIOD 18 IS TRANSIENT


 REUSING WELS FROM LAST STRESS PERIOD

 REUSING DRNS FROM LAST STRESS PERIOD

 REUSING RCHS FROM LAST STRESS PERIOD


  VOLUME BUDGET FOR ENTIRE MODEL AT END OF TIME STEP    1, STRESS PERIOD  18
  ---------------------------------------------------------------------------------------------------

     CUMULATIVE VOLUME      L**3       RATES FOR THIS TIME STEP      L**3/T          PACKAGE NAME    
     ------------------                 ------------------------                     ----------------

           IN:                                      IN:
           ---                                      ---
              STO-SS =           0.0000                STO-SS =           0.0000     STORAGE         
              STO-SY =   516780533.5471                STO-SY =    49720800.9131     STORAGE         
                 WEL =           0.0000                   WEL =           0.0000     WEL_0           
                 DRN =           0.0000                   DRN =           0.0000     DRN_0           
                 RCH =  1055221403.1895                   RCH =    39811813.8569     RCH_0           

            TOTAL IN =  1572001936.7365              TOTAL IN =    89532614.7699

          OUT:                                     OUT:
          ----                                     ----
              STO-SS =           0.0000                STO-SS =           0.0000     STORAGE         
              STO-SY =   405447939.5924                STO-SY =     7754231.0155     STORAGE         
                 WEL =   289529643.9044                   WEL =    36934454.5899     WEL_0           
                 DRN =   877024321.4557                   DRN =    44843935.2425     DRN_0           
                 RCH =           0.0000                   RCH =           0.0000     RCH_0           

           TOTAL OUT =  1572001904.9525             TOTAL OUT =    89532620.8479

            IN - OUT =          31.7840              IN - OUT =          -6.0779

 PERCENT DISCREPANCY =           0.00     PERCENT DISCREPANCY =          -0.00




         TIME SUMMARY AT END OF TIME STEP    1 IN STRESS PERIOD   18
                          TIME STEP LENGTH =    1.00000    
                        STRESS PERIOD TIME =    1.00000    
                     TOTAL SIMULATION TIME =    18.0000    

end timestep


start timestep kper="19" kstp="1" mode="normal"


 OUTPUT CONTROL FOR STRESS PERIOD 19 IS REPEATED USING SETTINGS FROM A PREVIOUS STRESS PERIOD.


 STRESS PERIOD 19 IS TRANSIENT


 REUSING WELS FROM LAST STRESS PERIOD

 REUSING DRNS FROM LAST STRESS PERIOD

 REUSING RCHS FROM LAST STRESS PERIOD


  VOLUME BUDGET FOR ENTIRE MODEL AT END OF TIME STEP    1, STRESS PERIOD  19
  ---------------------------------------------------------------------------------------------------

     CUMULATIVE VOLUME      L**3       RATES FOR THIS TIME STEP      L**3/T          PACKAGE NAME    
     ------------------                 ------------------------                     ----------------

           IN:                                      IN:
           ---                                      ---
              STO-SS =           0.0000                STO-SS =           0.0000     STORAGE         
              STO-SY =   562128384.1764                STO-SY =    45347850.6293     STORAGE         
                 WEL =           0.0000                   WEL =           0.0000     WEL_0           
                 DRN =           0.0000                   DRN =           0.0000     DRN_0           
                 RCH =  1083604422.9246                   RCH =    28383019.7351     RCH_0           

            TOTAL IN =  1645732807.1009              TOTAL IN =    73730870.3644

          OUT:                                     OUT:
          ----                                     ----
              STO-SS =           0.0000                STO-SS =           0.0000     STORAGE         
              STO-SY =   409515679.1622                STO-SY =     4067739.5699     STORAGE         
                 WEL =   320140585.6093                   WEL =    30610941.7049     WEL_0           
                 DRN =   916076485.0626                   DRN =    39052163.6069     DRN_0           
                 RCH =           0.0000                   RCH =           0.0000     RCH_0           

           TOTAL OUT =  1645732749.8342             TOTAL OUT =    73730844.8817

            IN - OUT =          57.2668              IN - OUT =          25.4827

 PERCENT DISCREPANCY =           0.00     PERCENT DISCREPANCY =           0.00




         TIME SUMMARY AT END OF TIME STEP    1 IN STRESS PERIOD   19
                          TIME STEP LENGTH =    1.00000    
                        STRESS PERIOD TIME =    1.00000    
                     TOTAL SIMULATION TIME =    19.0000    

end timestep


start timestep kper="20" kstp="1" mode="normal"


 OUTPUT CONTROL FOR STRESS PERIOD 20 IS REPEATED USING SETTINGS FROM A PREVIOUS STRESS PERIOD.


 STRESS PERIOD 20 IS TRANSIENT


 REUSING WELS FROM LAST STRESS PERIOD

 REUSING DRNS FROM LAST STRESS PERIOD

 REUSING RCHS FROM LAST STRESS PERIOD


  VOLUME BUDGET FOR ENTIRE MODEL AT END OF TIME STEP    1, STRESS PERIOD  20
  ---------------------------------------------------------------------------------------------------

     CUMULATIVE VOLUME      L**3       RATES FOR THIS TIME STEP      L**3/T          PACKAGE NAME    
     ------------------                 ------------------------                     ----------------

           IN:                                      IN:
           ---                                      ---
              STO-SS =           0.0000                STO-SS =           0.0000     STORAGE         
              STO-SY =   594592437.5695                STO-SY =    32464053.3932     STORAGE         
                 WEL =           0.0000                   WEL =           0.0000     WEL_0           
                 DRN =           0.0000                   DRN =           0.0000     DRN_0           
                 RCH =  1118352320.7625                   RCH =    34747897.8379     RCH_0           

            TOTAL IN =  1712944758.3320              TOTAL IN =    67211951.2311

          OUT:                                     OUT:
          ----                                     ----
              STO-SS =           0.0000                STO-SS =           0.0000     STORAGE         
              STO-SY =   414823689.6721                STO-SY =     5308010.5099     STORAGE         
                 WEL =   337894827.2952                   WEL =    17754241.6859     WEL_0           
                 DRN =   960226184.8873                   DRN =    44149699.8246     DRN_0           
                 RCH =           0.0000                   RCH =           0.0000     RCH_0           

           TOTAL OUT =  1712944701.8546             TOTAL OUT =    67211952.0204

            IN - OUT =          56.4774              IN - OUT =          -0.7894

 PERCENT DISCREPANCY =           0.00     PERCENT DISCREPANCY =          -0.00




         TIME SUMMARY AT END OF TIME STEP    1 IN STRESS PERIOD   20
                          TIME STEP LENGTH =    1.00000    
                        STRESS PERIOD TIME =    1.00000    
                     TOTAL SIMULATION TIME =    20.0000    

end timestep


start timestep kper="21" kstp="1" mode="normal"


 OUTPUT CONTROL FOR STRESS PERIOD 21 IS REPEATED USING SETTINGS FROM A PREVIOUS STRESS PERIOD.


 STRESS PERIOD 21 IS TRANSIENT


 REUSING WELS FROM LAST STRESS PERIOD

 REUSING DRNS FROM LAST STRESS PERIOD

 REUSING RCHS FROM LAST STRESS PERIOD


  VOLUME BUDGET FOR ENTIRE MODEL AT END OF TIME STEP    1, STRESS PERIOD  21
  ---------------------------------------------------------------------------------------------------

     CUMULATIVE VOLUME      L**3       RATES FOR THIS TIME STEP      L**3/T          PACKAGE NAME    
     ------------------                 ------------------------                     ----------------

           IN:                                      IN:
           ---                                      ---
              STO-SS =           0.0000                STO-SS =           0.0000     STORAGE         
              STO-SY =   623977938.8741                STO-SY =    29385501.3046     STORAGE         
                 WEL =           0.0000                   WEL =           0.0000     WEL_0           
                 DRN =           0.0000                   DRN =           0.0000     DRN_0           
                 RCH =  1135572045.6679                   RCH =    17219724.9054     RCH_0           

            TOTAL IN =  1759549984.5420              TOTAL IN =    46605226.2100

          OUT:                                     OUT:
          ----                                     ----
              STO-SS =           0.0000                STO-SS =           0.0000     STORAGE         
              STO-SY =   417449439.4984                STO-SY =     2625749.8262     STORAGE         
                 WEL =   344670060.3296                   WEL =     6775233.0344     WEL_0           
                 DRN =   997430424.1685                   DRN =    37204239.2812     DRN_0           
                 RCH =           0.0000                   RCH =           0.0000     RCH_0           

           TOTAL OUT =  1759549923.9964             TOTAL OUT =    46605222.1418

            IN - OUT =          60.5456              IN - OUT =           4.0682

 PERCENT DISCREPANCY =           0.00     PERCENT DISCREPANCY =           0.00




         TIME SUMMARY AT END OF TIME STEP    1 IN STRESS PERIOD   21
                          TIME STEP LENGTH =    1.00000    
                        STRESS PERIOD TIME =    1.00000    
                     TOTAL SIMULATION TIME =    21.0000    

end timestep


start timestep kper="22" kstp="1" mode="normal"


 OUTPUT CONTROL FOR STRESS PERIOD 22 IS REPEATED USING SETTINGS FROM A PREVIOUS STRESS PERIOD.


 STRESS PERIOD 22 IS TRANSIENT


 REUSING WELS FROM LAST STRESS PERIOD

 REUSING DRNS FROM LAST STRESS PERIOD

 REUSING RCHS FROM LAST STRESS PERIOD


  VOLUME BUDGET FOR ENTIRE MODEL AT END OF TIME STEP    1, STRESS PERIOD  22
  ---------------------------------------------------------------------------------------------------

     CUMULATIVE VOLUME      L**3       RATES FOR THIS TIME STEP      L**3/T          PACKAGE NAME    
     ------------------                 ------------------------                     ----------------

           IN:                                      IN:
           ---                                      ---
              STO-SS =           0.0000                STO-SS =           0.0000     STORAGE         
              STO-SY =   652285685.8075                STO-SY =    28307746.9334     STORAGE         
                 WEL =           0.0000                   WEL =           0.0000     WEL_0           
                 DRN =           0.0000                   DRN =           0.0000     DRN_0           
                 RCH =  1179174581.9119                   RCH =    43602536.2440     RCH_0           

            TOTAL IN =  1831460267.7195              TOTAL IN =    71910283.1774

          OUT:                                     OUT:
          ----                                     ----
              STO-SS =           0.0000                STO-SS =           0.0000     STORAGE         
              STO-SY =   424826627.7511                STO-SY =     7377188.2528     STORAGE         
                 WEL =   364764024.5218                   WEL =    20093964.1922     WEL_0           
                 DRN =  1041869556.8800                   DRN =    44439132.7115     DRN_0           
                 RCH =           0.0000                   RCH =           0.0000     RCH_0           

           TOTAL OUT =  1831460209.1529             TOTAL OUT =    71910285.1564

            IN - OUT =          58.5666              IN - OUT =          -1.9790

 PERCENT DISCREPANCY =           0.00     PERCENT DISCREPANCY =          -0.00




         TIME SUMMARY AT END OF TIME STEP    1 IN STRESS PERIOD   22
                          TIME STEP LENGTH =    1.00000    
                        STRESS PERIOD TIME =    1.00000    
                     TOTAL SIMULATION TIME =    22.0000    

end timestep


start timestep kper="23" kstp="1" mode="normal"


 OUTPUT CONTROL FOR STRESS PERIOD 23 IS REPEATED USING SETTINGS FROM A PREVIOUS STRESS PERIOD.


 STRESS PERIOD 23 IS TRANSIENT


 REUSING WELS FROM LAST STRESS PERIOD

 REUSING DRNS FROM LAST STRESS PERIOD

 REUSING RCHS FROM LAST STRESS PERIOD


  VOLUME BUDGET FOR ENTIRE MODEL AT END OF TIME STEP    1, STRESS PERIOD  23
  ---------------------------------------------------------------------------------------------------

     CUMULATIVE VOLUME      L**3       RATES FOR THIS TIME STEP      L**3/T          PACKAGE NAME    
     ------------------                 ------------------------                     ----------------

           IN:                                      IN:
           ---                                      ---
              STO-SS =           0.0000                STO-SS =           0.0000     STORAGE         
              STO-SY =   697608676.3456                STO-SY =    45322990.5380     STORAGE         
                 WEL =           0.0000                   WEL =           0.0000     WEL_0           
                 DRN =           0.0000                   DRN =           0.0000     DRN_0           
                 RCH =  1204929307.8709                   RCH =    25754725.9589     RCH_0           

            TOTAL IN =  1902537984.2164              TOTAL IN =    71077716.4969

          OUT:                                     OUT:
          ----                                     ----
              STO-SS =           0.0000                STO-SS =           0.0000     STORAGE         
              STO-SY =   428818548.1354                STO-SY =     3991920.3843     STORAGE         
                 WEL =   395190531.3490                   WEL =    30426506.8272     WEL_0           
                 DRN =  1078529025.3367                   DRN =    36659468.4567     DRN_0           
                 RCH =           0.0000                   RCH =           0.0000     RCH_0           

           TOTAL OUT =  1902538104.8210             TOTAL OUT =    71077895.6682

            IN - OUT =        -120.6046              IN - OUT =        -179.1712

 PERCENT DISCREPANCY =          -0.00     PERCENT DISCREPANCY =          -0.00




         TIME SUMMARY AT END OF TIME STEP    1 IN STRESS PERIOD   23
                          TIME STEP LENGTH =    1.00000    
                        STRESS PERIOD TIME =    1.00000    
                     TOTAL SIMULATION TIME =    23.0000    

end timestep


start timestep kper="24" kstp="1" mode="normal"


 OUTPUT CONTROL FOR STRESS PERIOD 24 IS REPEATED USING SETTINGS FROM A PREVIOUS STRESS PERIOD.


 STRESS PERIOD 24 IS TRANSIENT


 REUSING WELS FROM LAST STRESS PERIOD

 REUSING DRNS FROM LAST STRESS PERIOD

 REUSING RCHS FROM LAST STRESS PERIOD


  VOLUME BUDGET FOR ENTIRE MODEL AT END OF TIME STEP    1, STRESS PERIOD  24
  ---------------------------------------------------------------------------------------------------

     CUMULATIVE VOLUME      L**3       RATES FOR THIS TIME STEP      L**3/T          PACKAGE NAME    
     ------------------                 ------------------------                     ----------------

           IN:                                      IN:
           ---                                      ---
              STO-SS =           0.0000                STO-SS =           0.0000     STORAGE         
              STO-SY =   738849495.5444                STO-SY =    41240819.1989     STORAGE         
                 WEL =           0.0000                   WEL =           0.0000     WEL_0           
                 DRN =           0.0000                   DRN =           0.0000     DRN_0           
                 RCH =  1240474163.9959                   RCH =    35544856.1250     RCH_0           

            TOTAL IN =  1979323659.5403              TOTAL IN =    76785675.3239

          OUT:                                     OUT:
          ----                                     ----
              STO-SS =           0.0000                STO-SS =           0.0000     STORAGE         
              STO-SY =   433878956.6637                STO-SY =     5060408.5283     STORAGE         
                 WEL =   423241445.2582                   WEL =    28050913.9092     WEL_0           
                 DRN =  1122203338.0917                   DRN =    43674312.7550     DRN_0           
                 RCH =           0.0000                   RCH =           0.0000     RCH_0           

           TOTAL OUT =  1979323740.0136             TOTAL OUT =    76785635.1926

            IN - OUT =         -80.4733              IN - OUT =          40.1313

 PERCENT DISCREPANCY =          -0.00     PERCENT DISCREPANCY =           0.00




         TIME SUMMARY AT END OF TIME STEP    1 IN STRESS PERIOD   24
                          TIME STEP LENGTH =    1.00000    
                        STRESS PERIOD TIME =    1.00000    
                     TOTAL SIMULATION TIME =    24.0000    

end timestep


start timestep kper="25" kstp="1" mode="normal"


 OUTPUT CONTROL FOR STRESS PERIOD 25 IS REPEATED USING SETTINGS FROM A PREVIOUS STRESS PERIOD.


 STRESS PERIOD 25 IS TRANSIENT


 REUSING WELS FROM LAST STRESS PERIOD

 REUSING DRNS FROM LAST STRESS PERIOD

 REUSING RCHS FROM LAST STRESS PERIOD


  VOLUME BUDGET FOR ENTIRE MODEL AT END OF TIME STEP    1, STRESS PERIOD  25
  ---------------------------------------------------------------------------------------------------

     CUMULATIVE VOLUME      L**3       RATES FOR THIS TIME STEP      L**3/T          PACKAGE NAME    
     ------------------                 ------------------------                     ----------------

           IN:                                      IN:
           ---                                      ---
              STO-SS =           0.0000                STO-SS =           0.0000     STORAGE         
              STO-SY =   765209144.1432                STO-SY =    26359648.5988     STORAGE         
                 WEL =           0.0000                   WEL =           0.0000     WEL_0           
                 DRN =           0.0000                   DRN =           0.0000     DRN_0           
                 RCH =  1255141661.5792                   RCH =    14667497.5833     RCH_0           

            TOTAL IN =  2020350805.7224              TOTAL IN =    41027146.1820

          OUT:                                     OUT:
          ----                                     ----
              STO-SS =           0.0000                STO-SS =           0.0000     STORAGE         
              STO-SY =   436876683.4712                STO-SY =     2997726.8074     STORAGE         
                 WEL =   425665482.9694                   WEL =     2424037.7112     WEL_0           
                 DRN =  1157808711.4292                   DRN =    35605373.3375     DRN_0           
                 RCH =           0.0000                   RCH =           0.0000     RCH_0           

           TOTAL OUT =  2020350877.8697             TOTAL OUT =    41027137.8561

            IN - OUT =         -72.1474              IN - OUT =           8.3259

 PERCENT DISCREPANCY =          -0.00     PERCENT DISCREPANCY =           0.00




         TIME SUMMARY AT END OF TIME STEP    1 IN STRESS PERIOD   25
                          TIME STEP LENGTH =    1.00000    
                        STRESS PERIOD TIME =    1.00000    
                     TOTAL SIMULATION TIME =    25.0000    

end timestep


start timestep kper="26" kstp="1" mode="normal"


 OUTPUT CONTROL FOR STRESS PERIOD 26 IS REPEATED USING SETTINGS FROM A PREVIOUS STRESS PERIOD.


 STRESS PERIOD 26 IS TRANSIENT


 REUSING WELS FROM LAST STRESS PERIOD

 REUSING DRNS FROM LAST STRESS PERIOD

 REUSING RCHS FROM LAST STRESS PERIOD


  VOLUME BUDGET FOR ENTIRE MODEL AT END OF TIME STEP    1, STRESS PERIOD  26
  ---------------------------------------------------------------------------------------------------

     CUMULATIVE VOLUME      L**3       RATES FOR THIS TIME STEP      L**3/T          PACKAGE NAME    
     ------------------                 ------------------------                     ----------------

           IN:                                      IN:
           ---                                      ---
              STO-SS =           0.0000                STO-SS =           0.0000     STORAGE         
              STO-SY =   787408877.4521                STO-SY =    22199733.3090     STORAGE         
                 WEL =           0.0000                   WEL =           0.0000     WEL_0           
                 DRN =           0.0000                   DRN =           0.0000     DRN_0           
                 RCH =  1278196827.1910                   RCH =    23055165.6119     RCH_0           

            TOTAL IN =  2065605704.6432              TOTAL IN =    45254898.9208

          OUT:                                     OUT:
          ----                                     ----
              STO-SS =           0.0000                STO-SS =           0.0000     STORAGE         
              STO-SY =   440623702.5102                STO-SY =     3747019.0391     STORAGE         
                 WEL =   428570778.6392                   WEL =     2905295.6698     WEL_0           
                 DRN =  1196411295.4931                   DRN =    38602584.0639     DRN_0           
                 RCH =           0.0000                   RCH =           0.0000     RCH_0           

           TOTAL OUT =  2065605776.6425             TOTAL OUT =    45254898.7728

            IN - OUT =         -71.9993              IN - OUT =           0.1481

 PERCENT DISCREPANCY =          -0.00     PERCENT DISCREPANCY =           0.00




         TIME SUMMARY AT END OF TIME STEP    1 IN STRESS PERIOD   26
                          TIME STEP LENGTH =    1.00000    
                        STRESS PERIOD TIME =    1.00000    
                     TOTAL SIMULATION TIME =    26.0000    

end timestep


start timestep kper="27" kstp="1" mode="normal"


 OUTPUT CONTROL FOR STRESS PERIOD 27 IS REPEATED USING SETTINGS FROM A PREVIOUS STRESS PERIOD.


 STRESS PERIOD 27 IS TRANSIENT


 REUSING WELS FROM LAST STRESS PERIOD

 REUSING DRNS FROM LAST STRESS PERIOD

 REUSING RCHS FROM LAST STRESS PERIOD


  VOLUME BUDGET FOR ENTIRE MODEL AT END OF TIME STEP    1, STRESS PERIOD  27
  ---------------------------------------------------------------------------------------------------

     CUMULATIVE VOLUME      L**3       RATES FOR THIS TIME STEP      L**3/T          PACKAGE NAME    
     ------------------                 ------------------------                     ----------------

           IN:                                      IN:
           ---                                      ---
              STO-SS =           0.0000                STO-SS =           0.0000     STORAGE         
              STO-SY =   821403204.6133                STO-SY =    33994327.1612     STORAGE         
                 WEL =           0.0000                   WEL =           0.0000     WEL_0           
                 DRN =           0.0000                   DRN =           0.0000     DRN_0           
                 RCH =  1322882049.1930                   RCH =    44685222.0019     RCH_0           

            TOTAL IN =  2144285253.8063              TOTAL IN =    78679549.1631

          OUT:                                     OUT:
          ----                                     ----
              STO-SS =           0.0000                STO-SS =           0.0000     STORAGE         
              STO-SY =   448249629.2927                STO-SY =     7625926.7825     STORAGE         
                 WEL =   460608610.2423                   WEL =    32037831.6031     WEL_0           
                 DRN =  1235427071.7721                   DRN =    39015776.2791     DRN_0           
                 RCH =           0.0000                   RCH =           0.0000     RCH_0           

           TOTAL OUT =  2144285311.3071             TOTAL OUT =    78679534.6647

            IN - OUT =         -57.5008              IN - OUT =          14.4984

 PERCENT DISCREPANCY =          -0.00     PERCENT DISCREPANCY =           0.00




         TIME SUMMARY AT END OF TIME STEP    1 IN STRESS PERIOD   27
                          TIME STEP LENGTH =    1.00000    
                        STRESS PERIOD TIME =    1.00000    
                     TOTAL SIMULATION TIME =    27.0000    

end timestep


start timestep kper="28" kstp="1" mode="normal"


 OUTPUT CONTROL FOR STRESS PERIOD 28 IS REPEATED USING SETTINGS FROM A PREVIOUS STRESS PERIOD.


 STRESS PERIOD 28 IS TRANSIENT


 REUSING WELS FROM LAST STRESS PERIOD

 REUSING DRNS FROM LAST STRESS PERIOD

 REUSING RCHS FROM LAST STRESS PERIOD


  VOLUME BUDGET FOR ENTIRE MODEL AT END OF TIME STEP    1, STRESS PERIOD  28
  ---------------------------------------------------------------------------------------------------

     CUMULATIVE VOLUME      L**3       RATES FOR THIS TIME STEP      L**3/T          PACKAGE NAME    
     ------------------                 ------------------------                     ----------------

           IN:                                      IN:
           ---                                      ---
              STO-SS =           0.0000                STO-SS =           0.0000     STORAGE         
              STO-SY =   838004826.7030                STO-SY =    16601622.0897     STORAGE         
                 WEL =           0.0000                   WEL =           0.0000     WEL_0           
                 DRN =           0.0000                   DRN =           0.0000     DRN_0           
                 RCH =  1360612852.4544                   RCH =    37730803.2615     RCH_0           

            TOTAL IN =  2198617679.1574              TOTAL IN =    54332425.3511

          OUT:                                     OUT:
          ----                                     ----
              STO-SS =           0.0000                STO-SS =           0.0000     STORAGE         
              STO-SY =   457627404.8633                STO-SY =     9377775.5706     STORAGE         
                 WEL =   465124203.0964                   WEL =     4515592.8542     WEL_0           
                 DRN =  1275866133.5392                   DRN =    40439061.7671     DRN_0           
                 RCH =           0.0000                   RCH =           0.0000     RCH_0           

           TOTAL OUT =  2198617741.4990             TOTAL OUT =    54332430.1918

            IN - OUT =         -62.3415              IN - OUT =          -4.8407

 PERCENT DISCREPANCY =          -0.00     PERCENT DISCREPANCY =          -0.00




         TIME SUMMARY AT END OF TIME STEP    1 IN STRESS PERIOD   28
                          TIME STEP LENGTH =    1.00000    
                        STRESS PERIOD TIME =    1.00000    
                     TOTAL SIMULATION TIME =    28.0000    

end timestep


start timestep kper="29" kstp="1" mode="normal"


 OUTPUT CONTROL FOR STRESS PERIOD 29 IS REPEATED USING SETTINGS FROM A PREVIOUS STRESS PERIOD.


 STRESS PERIOD 29 IS TRANSIENT


 REUSING WELS FROM LAST STRESS PERIOD

 REUSING DRNS FROM LAST STRESS PERIOD

 REUSING RCHS FROM LAST STRESS PERIOD


  VOLUME BUDGET FOR ENTIRE MODEL AT END OF TIME STEP    1, STRESS PERIOD  29
  ---------------------------------------------------------------------------------------------------

     CUMULATIVE VOLUME      L**3       RATES FOR THIS TIME STEP      L**3/T          PACKAGE NAME    
     ------------------                 ------------------------                     ----------------

           IN:                                      IN:
           ---                                      ---
              STO-SS =           0.0000                STO-SS =           0.0000     STORAGE         
              STO-SY =   867338933.0514                STO-SY =    29334106.3484     STORAGE         
                 WEL =           0.0000                   WEL =           0.0000     WEL_0           
                 DRN =           0.0000                   DRN =           0.0000     DRN_0           
                 RCH =  1382305936.0780                   RCH =    21693083.6236     RCH_0           

            TOTAL IN =  2249644869.1295              TOTAL IN =    51027189.9720

          OUT:                                     OUT:
          ----                                     ----
              STO-SS =           0.0000                STO-SS =           0.0000     STORAGE         
              STO-SY =   460978396.2010                STO-SY =     3350991.3377     STORAGE         
                 WEL =   476468661.2459                   WEL =    11344458.1495     WEL_0           
                 DRN =  1312197875.8077                   DRN =    36331742.2685     DRN_0           
                 RCH =           0.0000                   RCH =           0.0000     RCH_0           

           TOTAL OUT =  2249644933.2546             TOTAL OUT =    51027191.7557

            IN - OUT =         -64.1252              IN - OUT =          -1.7836

 PERCENT DISCREPANCY =          -0.00     PERCENT DISCREPANCY =          -0.00




         TIME SUMMARY AT END OF TIME STEP    1 IN STRESS PERIOD   29
                          TIME STEP LENGTH =    1.00000    
                        STRESS PERIOD TIME =    1.00000    
                     TOTAL SIMULATION TIME =    29.0000    

end timestep


start timestep kper="30" kstp="1" mode="normal"


 OUTPUT CONTROL FOR STRESS PERIOD 30 IS REPEATED USING SETTINGS FROM A PREVIOUS STRESS PERIOD.


 STRESS PERIOD 30 IS TRANSIENT


 REUSING WELS FROM LAST STRESS PERIOD

 REUSING DRNS FROM LAST STRESS PERIOD

 REUSING RCHS FROM LAST STRESS PERIOD


  VOLUME BUDGET FOR ENTIRE MODEL AT END OF TIME STEP    1, STRESS PERIOD  30
[...]

 REUSING RCHS FROM LAST STRESS PERIOD


  VOLUME BUDGET FOR ENTIRE MODEL AT END OF TIME STEP    1, STRESS PERIOD1090
  ---------------------------------------------------------------------------------------------------

     CUMULATIVE VOLUME      L**3       RATES FOR THIS TIME STEP      L**3/T          PACKAGE NAME    
     ------------------                 ------------------------                     ----------------

           IN:                                      IN:
           ---                                      ---
              STO-SS =           0.0000                STO-SS =           0.0000     STORAGE         
              STO-SY = 19954553148.5713                STO-SY =    17489534.9803     STORAGE         
                 WEL =           0.0000                   WEL =           0.0000     WEL_0           
                 DRN =           0.0000                   DRN =           0.0000     DRN_0           
                 RCH = 45060465797.3423                   RCH =     9260777.6993     RCH_0           

            TOTAL IN = 65015018945.9135              TOTAL IN =    26750312.6796

          OUT:                                     OUT:
          ----                                     ----
              STO-SS =           0.0000                STO-SS =           0.0000     STORAGE         
              STO-SY = 16241418667.5259                STO-SY =     1743104.8267     STORAGE         
                 WEL = 11060739196.7475                   WEL =    16053089.0377     WEL_0           
                 DRN = 37712847547.7647                   DRN =     8954118.7904     DRN_0           
                 RCH =           0.0000                   RCH =           0.0000     RCH_0           

           TOTAL OUT = 65015005412.0381             TOTAL OUT =    26750312.6547

            IN - OUT =       13533.8754              IN - OUT =       2.4931E-02

 PERCENT DISCREPANCY =           0.00     PERCENT DISCREPANCY =           0.00




         TIME SUMMARY AT END OF TIME STEP    1 IN STRESS PERIOD 1090
                          TIME STEP LENGTH =    1.00000    
                        STRESS PERIOD TIME =    1.00000    
                     TOTAL SIMULATION TIME =    1090.00    

end timestep


start timestep kper="1091" kstp="1" mode="normal"


 OUTPUT CONTROL FOR STRESS PERIOD 1091 IS REPEATED USING SETTINGS FROM A PREVIOUS STRESS PERIOD.


 STRESS PERIOD 1091 IS TRANSIENT


 REUSING WELS FROM LAST STRESS PERIOD

 REUSING DRNS FROM LAST STRESS PERIOD

 REUSING RCHS FROM LAST STRESS PERIOD


  VOLUME BUDGET FOR ENTIRE MODEL AT END OF TIME STEP    1, STRESS PERIOD1091
  ---------------------------------------------------------------------------------------------------

     CUMULATIVE VOLUME      L**3       RATES FOR THIS TIME STEP      L**3/T          PACKAGE NAME    
     ------------------                 ------------------------                     ----------------

           IN:                                      IN:
           ---                                      ---
              STO-SS =           0.0000                STO-SS =           0.0000     STORAGE         
              STO-SY = 19963195595.6145                STO-SY =     8642447.0433     STORAGE         
                 WEL =           0.0000                   WEL =           0.0000     WEL_0           
                 DRN =           0.0000                   DRN =           0.0000     DRN_0           
                 RCH = 45074712312.5452                   RCH =    14246515.2029     RCH_0           

            TOTAL IN = 65037907908.1597              TOTAL IN =    22888962.2462

          OUT:                                     OUT:
          ----                                     ----
              STO-SS =           0.0000                STO-SS =           0.0000     STORAGE         
              STO-SY = 16247107463.3287                STO-SY =     5688795.8028     STORAGE         
                 WEL = 11068428351.7215                   WEL =     7689154.9739     WEL_0           
                 DRN = 37722358541.4244                   DRN =     9510993.6597     DRN_0           
                 RCH =           0.0000                   RCH =           0.0000     RCH_0           

           TOTAL OUT = 65037894356.4746             TOTAL OUT =    22888944.4365

            IN - OUT =       13551.6850              IN - OUT =          17.8097

 PERCENT DISCREPANCY =           0.00     PERCENT DISCREPANCY =           0.00




         TIME SUMMARY AT END OF TIME STEP    1 IN STRESS PERIOD 1091
                          TIME STEP LENGTH =    1.00000    
                        STRESS PERIOD TIME =    1.00000    
                     TOTAL SIMULATION TIME =    1091.00    

end timestep


start timestep kper="1092" kstp="1" mode="normal"


 OUTPUT CONTROL FOR STRESS PERIOD 1092 IS REPEATED USING SETTINGS FROM A PREVIOUS STRESS PERIOD.


 STRESS PERIOD 1092 IS TRANSIENT


 REUSING WELS FROM LAST STRESS PERIOD

 REUSING DRNS FROM LAST STRESS PERIOD

 REUSING RCHS FROM LAST STRESS PERIOD


  VOLUME BUDGET FOR ENTIRE MODEL AT END OF TIME STEP    1, STRESS PERIOD1092
  ---------------------------------------------------------------------------------------------------

     CUMULATIVE VOLUME      L**3       RATES FOR THIS TIME STEP      L**3/T          PACKAGE NAME    
     ------------------                 ------------------------                     ----------------

           IN:                                      IN:
           ---                                      ---
              STO-SS =           0.0000                STO-SS =           0.0000     STORAGE         
              STO-SY = 19967761261.6480                STO-SY =     4565666.0335     STORAGE         
                 WEL =           0.0000                   WEL =           0.0000     WEL_0           
                 DRN =           0.0000                   DRN =           0.0000     DRN_0           
                 RCH = 45113410902.7654                   RCH =    38698590.2203     RCH_0           

            TOTAL IN = 65081172164.4134              TOTAL IN =    43264256.2537

          OUT:                                     OUT:
          ----                                     ----
              STO-SS =           0.0000                STO-SS =           0.0000     STORAGE         
              STO-SY = 16272086017.7662                STO-SY =    24978554.4375     STORAGE         
                 WEL = 11075445531.7963                   WEL =     7017180.0748     WEL_0           
                 DRN = 37733627063.1564                   DRN =    11268521.7320     DRN_0           
                 RCH =           0.0000                   RCH =           0.0000     RCH_0           

           TOTAL OUT = 65081158612.7189             TOTAL OUT =    43264256.2443

            IN - OUT =       13551.6945              IN - OUT =       9.4293E-03

 PERCENT DISCREPANCY =           0.00     PERCENT DISCREPANCY =           0.00




         TIME SUMMARY AT END OF TIME STEP    1 IN STRESS PERIOD 1092
                          TIME STEP LENGTH =    1.00000    
                        STRESS PERIOD TIME =    1.00000    
                     TOTAL SIMULATION TIME =    1092.00    

end timestep


start timestep kper="1093" kstp="1" mode="normal"


 OUTPUT CONTROL FOR STRESS PERIOD 1093 IS REPEATED USING SETTINGS FROM A PREVIOUS STRESS PERIOD.


 STRESS PERIOD 1093 IS TRANSIENT


 REUSING WELS FROM LAST STRESS PERIOD

 REUSING DRNS FROM LAST STRESS PERIOD

 REUSING RCHS FROM LAST STRESS PERIOD


  VOLUME BUDGET FOR ENTIRE MODEL AT END OF TIME STEP    1, STRESS PERIOD1093
  ---------------------------------------------------------------------------------------------------

     CUMULATIVE VOLUME      L**3       RATES FOR THIS TIME STEP      L**3/T          PACKAGE NAME    
     ------------------                 ------------------------                     ----------------

           IN:                                      IN:
           ---                                      ---
              STO-SS =           0.0000                STO-SS =           0.0000     STORAGE         
              STO-SY = 19980077790.3127                STO-SY =    12316528.6647     STORAGE         
                 WEL =           0.0000                   WEL =           0.0000     WEL_0           
                 DRN =           0.0000                   DRN =           0.0000     DRN_0           
                 RCH = 45120920705.9506                   RCH =     7509803.1852     RCH_0           

            TOTAL IN = 65100998496.2633              TOTAL IN =    19826331.8498

          OUT:                                     OUT:
          ----                                     ----
              STO-SS =           0.0000                STO-SS =           0.0000     STORAGE         
              STO-SY = 16274326462.5276                STO-SY =     2240444.7614     STORAGE         
                 WEL = 11083883899.1822                   WEL =     8438367.3859     WEL_0           
                 DRN = 37742774589.6799                   DRN =     9147526.5234     DRN_0           
                 RCH =           0.0000                   RCH =           0.0000     RCH_0           

           TOTAL OUT = 65100984951.3896             TOTAL OUT =    19826338.6707

            IN - OUT =       13544.8736              IN - OUT =          -6.8208

 PERCENT DISCREPANCY =           0.00     PERCENT DISCREPANCY =          -0.00




         TIME SUMMARY AT END OF TIME STEP    1 IN STRESS PERIOD 1093
                          TIME STEP LENGTH =    1.00000    
                        STRESS PERIOD TIME =    1.00000    
                     TOTAL SIMULATION TIME =    1093.00    

end timestep


start timestep kper="1094" kstp="1" mode="normal"


 OUTPUT CONTROL FOR STRESS PERIOD 1094 IS REPEATED USING SETTINGS FROM A PREVIOUS STRESS PERIOD.


 STRESS PERIOD 1094 IS TRANSIENT


 REUSING WELS FROM LAST STRESS PERIOD

 REUSING DRNS FROM LAST STRESS PERIOD

 REUSING RCHS FROM LAST STRESS PERIOD


  VOLUME BUDGET FOR ENTIRE MODEL AT END OF TIME STEP    1, STRESS PERIOD1094
  ---------------------------------------------------------------------------------------------------

     CUMULATIVE VOLUME      L**3       RATES FOR THIS TIME STEP      L**3/T          PACKAGE NAME    
     ------------------                 ------------------------                     ----------------

           IN:                                      IN:
           ---                                      ---
              STO-SS =           0.0000                STO-SS =           0.0000     STORAGE         
              STO-SY = 19988813880.8940                STO-SY =     8736090.5814     STORAGE         
                 WEL =           0.0000                   WEL =           0.0000     WEL_0           
                 DRN =           0.0000                   DRN =           0.0000     DRN_0           
                 RCH = 45138362657.5964                   RCH =    17441951.6458     RCH_0           

            TOTAL IN = 65127176538.4904              TOTAL IN =    26178042.2271

          OUT:                                     OUT:
          ----                                     ----
              STO-SS =           0.0000                STO-SS =           0.0000     STORAGE         
              STO-SY = 16281725693.8895                STO-SY =     7399231.3620     STORAGE         
                 WEL = 11092672283.1933                   WEL =     8788384.0111     WEL_0           
                 DRN = 37752765015.9814                   DRN =     9990426.3015     DRN_0           
                 RCH =           0.0000                   RCH =           0.0000     RCH_0           

           TOTAL OUT = 65127162993.0642             TOTAL OUT =    26178041.6745

            IN - OUT =       13545.4262              IN - OUT =           0.5526

 PERCENT DISCREPANCY =           0.00     PERCENT DISCREPANCY =           0.00




         TIME SUMMARY AT END OF TIME STEP    1 IN STRESS PERIOD 1094
                          TIME STEP LENGTH =    1.00000    
                        STRESS PERIOD TIME =    1.00000    
                     TOTAL SIMULATION TIME =    1094.00    

end timestep


start timestep kper="1095" kstp="1" mode="normal"


 OUTPUT CONTROL FOR STRESS PERIOD 1095 IS REPEATED USING SETTINGS FROM A PREVIOUS STRESS PERIOD.


 STRESS PERIOD 1095 IS TRANSIENT


 REUSING WELS FROM LAST STRESS PERIOD

 REUSING DRNS FROM LAST STRESS PERIOD

 REUSING RCHS FROM LAST STRESS PERIOD


  VOLUME BUDGET FOR ENTIRE MODEL AT END OF TIME STEP    1, STRESS PERIOD1095
  ---------------------------------------------------------------------------------------------------

     CUMULATIVE VOLUME      L**3       RATES FOR THIS TIME STEP      L**3/T          PACKAGE NAME    
     ------------------                 ------------------------                     ----------------

           IN:                                      IN:
           ---                                      ---
              STO-SS =           0.0000                STO-SS =           0.0000     STORAGE         
              STO-SY = 20004402175.7547                STO-SY =    15588294.8606     STORAGE         
                 WEL =           0.0000                   WEL =           0.0000     WEL_0           
                 DRN =           0.0000                   DRN =           0.0000     DRN_0           
                 RCH = 45145825543.0359                   RCH =     7462885.4395     RCH_0           

            TOTAL IN = 65150227718.7906              TOTAL IN =    23051180.3002

          OUT:                                     OUT:
          ----                                     ----
              STO-SS =           0.0000                STO-SS =           0.0000     STORAGE         
              STO-SY = 16283369253.5664                STO-SY =     1643559.6768     STORAGE         
                 WEL = 11104990932.5144                   WEL =    12318649.3211     WEL_0           
                 DRN = 37761853988.8017                   DRN =     9088972.8204     DRN_0           
                 RCH =           0.0000                   RCH =           0.0000     RCH_0           

           TOTAL OUT = 65150214174.8825             TOTAL OUT =    23051181.8183

            IN - OUT =       13543.9081              IN - OUT =          -1.5181

 PERCENT DISCREPANCY =           0.00     PERCENT DISCREPANCY =          -0.00




         TIME SUMMARY AT END OF TIME STEP    1 IN STRESS PERIOD 1095
                          TIME STEP LENGTH =    1.00000    
                        STRESS PERIOD TIME =    1.00000    
                     TOTAL SIMULATION TIME =    1095.00    

end timestep


start timestep kper="1096" kstp="1" mode="normal"


 OUTPUT CONTROL FOR STRESS PERIOD 1096 IS REPEATED USING SETTINGS FROM A PREVIOUS STRESS PERIOD.


 STRESS PERIOD 1096 IS TRANSIENT


 REUSING WELS FROM LAST STRESS PERIOD

 REUSING DRNS FROM LAST STRESS PERIOD

 REUSING RCHS FROM LAST STRESS PERIOD


  VOLUME BUDGET FOR ENTIRE MODEL AT END OF TIME STEP    1, STRESS PERIOD1096
  ---------------------------------------------------------------------------------------------------

     CUMULATIVE VOLUME      L**3       RATES FOR THIS TIME STEP      L**3/T          PACKAGE NAME    
     ------------------                 ------------------------                     ----------------

           IN:                                      IN:
           ---                                      ---
              STO-SS =           0.0000                STO-SS =           0.0000     STORAGE         
              STO-SY = 20021685310.7352                STO-SY =    17283134.9806     STORAGE         
                 WEL =           0.0000                   WEL =           0.0000     WEL_0           
                 DRN =           0.0000                   DRN =           0.0000     DRN_0           
                 RCH = 45155270996.0884                   RCH =     9445453.0524     RCH_0           

            TOTAL IN = 65176956306.8236              TOTAL IN =    26728588.0330

          OUT:                                     OUT:
          ----                                     ----
              STO-SS =           0.0000                STO-SS =           0.0000     STORAGE         
              STO-SY = 16285180177.4054                STO-SY =     1810923.8390     STORAGE         
                 WEL = 11120608059.6594                   WEL =    15617127.1451     WEL_0           
                 DRN = 37771154524.4749                   DRN =     9300535.6731     DRN_0           
                 RCH =           0.0000                   RCH =           0.0000     RCH_0           

           TOTAL OUT = 65176942761.5397             TOTAL OUT =    26728586.6572

            IN - OUT =       13545.2839              IN - OUT =           1.3758

 PERCENT DISCREPANCY =           0.00     PERCENT DISCREPANCY =           0.00




         TIME SUMMARY AT END OF TIME STEP    1 IN STRESS PERIOD 1096
                          TIME STEP LENGTH =    1.00000    
                        STRESS PERIOD TIME =    1.00000    
                     TOTAL SIMULATION TIME =    1096.00    

end timestep


start timestep kper="1097" kstp="1" mode="normal"


 OUTPUT CONTROL FOR STRESS PERIOD 1097 IS REPEATED USING SETTINGS FROM A PREVIOUS STRESS PERIOD.


 STRESS PERIOD 1097 IS TRANSIENT


 REUSING WELS FROM LAST STRESS PERIOD

 REUSING DRNS FROM LAST STRESS PERIOD

 REUSING RCHS FROM LAST STRESS PERIOD


  VOLUME BUDGET FOR ENTIRE MODEL AT END OF TIME STEP    1, STRESS PERIOD1097
  ---------------------------------------------------------------------------------------------------

     CUMULATIVE VOLUME      L**3       RATES FOR THIS TIME STEP      L**3/T          PACKAGE NAME    
     ------------------                 ------------------------                     ----------------

           IN:                                      IN:
           ---                                      ---
              STO-SS =           0.0000                STO-SS =           0.0000     STORAGE         
              STO-SY = 20068812091.3164                STO-SY =    47126780.5812     STORAGE         
                 WEL =           0.0000                   WEL =           0.0000     WEL_0           
                 DRN =           0.0000                   DRN =           0.0000     DRN_0           
                 RCH = 45172766379.6943                   RCH =    17495383.6059     RCH_0           

            TOTAL IN = 65241578471.0107              TOTAL IN =    64622164.1871

          OUT:                                     OUT:
          ----                                     ----
              STO-SS =           0.0000                STO-SS =           0.0000     STORAGE         
              STO-SY = 16287560795.8941                STO-SY =     2380618.4888     STORAGE         
                 WEL = 11174775977.9833                   WEL =    54167918.3239     WEL_0           
                 DRN = 37779228142.1120                   DRN =     8073617.6371     DRN_0           
                 RCH =           0.0000                   RCH =           0.0000     RCH_0           

           TOTAL OUT = 65241564915.9894             TOTAL OUT =    64622154.4497

            IN - OUT =       13555.0213              IN - OUT =           9.7374

 PERCENT DISCREPANCY =           0.00     PERCENT DISCREPANCY =           0.00




         TIME SUMMARY AT END OF TIME STEP    1 IN STRESS PERIOD 1097
                          TIME STEP LENGTH =    1.00000    
                        STRESS PERIOD TIME =    1.00000    
                     TOTAL SIMULATION TIME =    1097.00    

end timestep

